 ****** HSPICE -- D-2010.03-SP2 32-BIT (Aug 26 2010) winnt ******               
  Copyright (C) 2010 Synopsys, Inc. All Rights Reserved.                        
  Unpublished-rights reserved under US copyright laws.
  This program is protected by law and is subject to the 
  terms and conditions of the license agreement from Synopsys.
  Use of this program is your acceptance to be bound by the 
  license agreement. HSPICE is the trademark of Synopsys, Inc.
  Input File: c:\for_hspice_code\project_file\hspice_on_vs_code\hw5\5_2.sp      
  lic:  
  lic: FLEXlm: v10.8 
  lic: USER:   User                 HOSTNAME: LAPTOP-5ELPVJPP 
  lic: HOSTID: "2016b940a885 2016b940a886 2216b940a885" PID:      2652 
  lic: Using FLEXlm license file: 
  lic: 27000@localhost 
  lic: Checkout 1 hspice 
  lic: License/Maintenance for hspice will expire on 31-dec-2028/2008.120 
  lic: 1(in_use)/999(total) FLOATING license(s) on SERVER localhost 
  lic:   
 Init: read install configuration file: C:\synopsys\Hspice_D-2010.03-SP2\meta.cfg
  **info**  the obsolete option acct is ignored
  **info**  the obsolete option acct is ignored
  **warning** (C:\for_hspice_code\project_file\hspice_on_VS_code\U18_model\U18_Spice_model\./mm180_reg18_v124.mdl:7) Model n_18_mm device geometries will not be checked against the limits set by lmin, lmax, wmin and wmax. To enable this check, add a period(.) to the model name(i.e. enable model selector).
1****** HSPICE -- D-2010.03-SP2 32-BIT (Aug 26 2010) winnt ******               
 ******  
 *****************

  ******  mos   model parameters tnom=  25.000 temp=  25.000 *****
 ***************************************************************************
 ***        model parameters  model name:   0:n_18_mm  model type:nmos   ***
 ***************************************************************************

   *** general parameters ***
    deriv=   0.           

   ***  level 49  model parameters  ***

       hspver=    2006.03               level=         49         
      version=        3.2            paramchk=          0         
       apwarn=          1                lite=          0         
       vgslim=          0             binUnit=          1         
       capMod=          2               xpart=          1         
       mobMod=          1              nqsMod=          0         
       stiMod=          0                 elm=          5         
     sfvtflag=          0                 tox=   4.2e-009 meter   
           xj=   1.6e-007 meter       binflag=          0         
         lmin=   1.8e-007 meter          lmax=     5e-005 meter   
         wmin=   2.4e-007 meter          wmax=     0.0001 meter   
         lref=          0 meter          wref=          0 meter   
         lint= 1.587e-008 meter          wint= 1.022e-008 meter   
        lmult=          1               wmult=          1         
           ll=-1.062e-015                 lln=          1         
           lw= 2.996e-015                 lwn=          1         
          lwl=          0                  wl=          0         
          wln=          1                  ww= 7.262e-016         
          wwn=          1                 wwl=          0         
          dwg=-3.396e-009 m/V             dwb= 1.346e-009 m/V^1/2 
           xl= -1.05e-008                  xw=          0         
           a0=       1.93                 ags=     0.5072 V^-1    
           b0= 1.486e-006 meter            b1= 9.064e-006 meter   
         keta=    0.01752 V^-1           voff=    -0.1088 V       
        ngate=     1e+023 cm^-3           vbx=          0 V       
          vbm=         -3 V                xt=  1.55e-007 meter   
         vth0=     0.3075 V               nch=3.7446e+017 cm^-3   
         nsub=     6e+016 cm^-3           nlx= 4.279e-007 meter   
       gamma1=          0 V^-1/2       gamma2=          0 V^-1/2  
           k1=     0.4578 V^1/2            k2=   -0.02638         
           k3=     -10.88                 k3b=     0.2379 V^-1    
           w0=-8.813e-008 meter          dvt0=     0.4042         
         dvt1=     0.3237                dvt2=    -0.8602 V^-1    
        dvt0w=      0.383 meter^-1      dvt1w=     600000 meter^-1
        dvt2w=     -0.025 V^-1           dsub=   0.001592         
         eta0=   0.001004                etab=  -0.001459 V^-1    
           u0=      314.1 cm^2/V/sec         ua=-9.201e-010 m/V     
           ub= 1.907e-018 (m/V)^2          uc= 4.355e-011 V^-1    
         vsat=      71580 m/sec            a1=          0 v^-1    
           a2=          1               delta=       0.01 V       
         rdsw=      4.905 ohm-um         prwg=          0 V^-1    
         prwb=          0 V^-1/2           wr=          1         
         pclm=      1.091             pdiblc1=   0.003061         
      pdiblc2=     1e-006             pdiblcb=          0 V^-1    
       pscbe1= 4.866e+008 V/m          pscbe2=   2.8e-007 V/m     
        drout=   0.001592                pvag=    -0.2958         
      nfactor=      1.038                cdsc=   0.002175 f/m^2   
        cdscb=  0.0008241 f/V/m^2       cdscd=    -0.0005 f/V/m^2 
          cit=  -0.001511 f/m^2        alpha0=          0 m/V     
        beta0=         30 V               dlc=   2.9e-008 meter   
          dwc=          0 meter           clc=     1e-007 meter   
          cle=        0.6                cgso=  2.35e-010 f/m     
         cgdo=  2.35e-010 f/m            cgbo=          0 f/m     
         cgsl=          0 f/m            cgdl=          0 f/m     
       ckappa=        0.6                  cf= 1.533e-010 f/m     
         acde=          1 m/V            moin=         15 V^1/2   
         toxm=   4.2e-009 m            dtoxcv=          0 m       
          vfb (not used)                alpha1=          0 1/V     
         ijth=          0 A              noff=          1         
       voffcv=          0                 tcj=          0 1/K     
        tcjsw=          0 1/K          tcjswg=          0 1/K     
          tpb=          0 V/K           tpbsw=          0 V/K     
       tpbswg=          0 V/K             llc= -2.14e-015         
          lwc=          0                lwlc=          0         
          wlc=          0                 wwc=          0         
         wwlc=          0                tnom=     298.15 K       
          kt1=    -0.2255 V              kt1l=-4.175e-009         
          kt2=   -0.02527                 ute=     -1.286         
          ua1= 2.153e-009 m/V             ub1=-2.673e-018 (m/V)^2 
          uc1=-3.832e-011 m/V^2            at=      14490 m/s     
          prt=     -10.18         
          using Berkeley noise model       noiMod=          2         
         noia=1.31826e+019                noib=     144544         
         noic=-1.24516e-012                  em=   4.1e+007         
           ef=       0.92                  af=          1         
           kf=          0              gdsnoi=-1.23457e-029         
          using Hspice diodes            using ACM 
          acm=         3                 hdif=  2.6e-007 meter    
         ldif=    8e-008 meter             js=    1e-006 amp/m^2  
          jsw=    7e-011 amp/m            xti=         3          
            n=         1                   cj=   0.00103 f/m^2    
           mj=     0.443                   pb=     0.813 V        
         cjsw= 1.34e-010 f/m             mjsw=      0.33          
          php=      0.88 V               pbsw (not used)           
       cjgate=    5e-010 f/m            cjswg (not used)           
        mjswg (not used)                 pbswg (not used)           
          la0=    -0.4667                lags=     0.3028         
        lketa=   -0.01942               lvoff=  -0.004208         
        lvth0=     -0.001                lnlx=-2.854e-008         
        leta0=   0.001574            lpdiblc2=  -0.004752         
          wa0=   -0.04731                wags=   0.004242         
        wvoff= -0.0004078               wvth0=    0.06027         
          wu0=       0.54                 wua= -1.88e-011         
        wvsat=       5066                wute=    0.06373         
          wat=       7067                 pa0=   -0.02649         
        pvoff= -0.0003788                 pw0=   1.3e-009         
          pub=   3.8e-020         
 ***************************************************************************
 ***        model parameters  model name:   0:p_18_mm  model type:pmos   ***
 ***************************************************************************

   *** general parameters ***
    deriv=   0.           

   ***  level 49  model parameters  ***

       hspver=    2006.03               level=         49         
      version=        3.2            paramchk=          0         
       apwarn=          1                lite=          0         
       vgslim=          0             binUnit=          1         
       capMod=          2               xpart=          1         
       mobMod=          3              nqsMod=          0         
       stiMod=          0                 elm=          5         
     sfvtflag=          0                 tox=   4.2e-009 meter   
           xj=     1e-007 meter       binflag=          0         
         lmin=   1.8e-007 meter          lmax=     5e-005 meter   
         wmin=   2.4e-007 meter          wmax=     0.0001 meter   
         lref=          0 meter          wref=          0 meter   
         lint=-1.041e-008 meter          wint=-1.525e-007 meter   
        lmult=          1               wmult=          1         
           ll= 6.635e-015                 lln=          1         
           lw=-2.873e-016                 lwn=          1         
          lwl=          0                  wl=          0         
          wln=          1                  ww= 1.236e-014         
          wwn=          1                 wwl=          0         
          dwg=-1.151e-007 m/V             dwb=-1.039e-007 m/V^1/2 
           xl=    -2e-009                  xw=          0         
           a0=       1.35                 ags=     0.3818 V^-1    
           b0=-3.088e-007 meter            b1=          0 meter   
         keta=    0.01044 V^-1           voff=    -0.1073 V       
        ngate=     1e+023 cm^-3           vbx=          0 V       
          vbm=         -3 V                xt=  1.55e-007 meter   
         vth0=    -0.4555 V               nch= 6.131e+017 cm^-3   
         nsub=     6e+016 cm^-3           nlx=  2.53e-007 meter   
       gamma1=          0 V^-1/2       gamma2=          0 V^-1/2  
           k1=     0.5704 V^1/2            k2=   0.006973         
           k3=     -2.833                 k3b=      1.326 V^-1    
           w0=-1.943e-007 meter          dvt0=     0.4885         
         dvt1=    0.07578                dvt2=     0.1287 V^-1    
        dvt0w=    -0.1261 meter^-1      dvt1w=      24790 meter^-1
        dvt2w=     0.6915 V^-1           dsub=     1.9191         
         eta0=      1.071                etab=    -0.9291 V^-1    
           u0=      114.5 cm^2/V/sec         ua=  1.54e-009 m/V     
           ub= 2.646e-019 (m/V)^2          uc=   -0.09587 V^-1    
         vsat=      53400 m/sec            a1=          0 v^-1    
           a2=          1               delta=       0.01 V       
         rdsw=      792.1 ohm-um         prwg=          0 V^-1    
         prwb=          0 V^-1/2           wr=          1         
         pclm=      2.653             pdiblc1=          0         
      pdiblc2=     5e-006             pdiblcb=          0 V^-1    
       pscbe1= 4.866e+008 V/m          pscbe2=   2.8e-007 V/m     
        drout=      1.457                pvag=      1.162         
      nfactor=      1.535                cdsc=  0.0007578 f/m^2   
        cdscb=     0.0001 f/V/m^2       cdscd=-2.883e-005 f/V/m^2 
          cit=  -0.001067 f/m^2        alpha0=          0 m/V     
        beta0=         30 V               dlc=   5.6e-008 meter   
          dwc=          0 meter           clc=     1e-007 meter   
          cle=        0.6                cgso= 2.054e-010 f/m     
         cgdo= 2.054e-010 f/m            cgbo=          0 f/m     
         cgsl=          0 f/m            cgdl=          0 f/m     
       ckappa=        0.6                  cf= 1.533e-010 f/m     
         acde=          1 m/V            moin=         15 V^1/2   
         toxm=   4.2e-009 m            dtoxcv=          0 m       
          vfb (not used)                alpha1=          0 1/V     
         ijth=          0 A              noff=          1         
       voffcv=          0                 tcj=          0 1/K     
        tcjsw=          0 1/K          tcjswg=          0 1/K     
          tpb=          0 V/K           tpbsw=          0 V/K     
       tpbswg=          0 V/K             llc= -7.45e-015         
          lwc=          0                lwlc=          0         
          wlc=          0                 wwc=          0         
         wwlc=          0                tnom=     298.15 K       
          kt1=    -0.2194 V              kt1l=-8.204e-009         
          kt2=  -0.009487                 ute=    -0.4484         
          ua1= 4.571e-009 m/V             ub1=-6.026e-018 (m/V)^2 
          uc1=    -0.0985 m/V^2            at=      12030 m/s     
          prt=          0         
          using Berkeley noise model       noiMod=          2         
         noia=3.57457e+018                noib=       2500         
         noic=2.6126e-011                  em=   4.1e+007         
           ef=     1.1388                  af=          1         
           kf=          0              gdsnoi=-1.23457e-029         
          using Hspice diodes            using ACM 
          acm=         3                 hdif=  2.6e-007 meter    
         ldif=    8e-008 meter             js=    3e-006 amp/m^2  
          jsw= 4.12e-011 amp/m            xti=         3          
            n=         1                   cj=   0.00114 f/m^2    
           mj=     0.395                   pb=     0.762 V        
         cjsw= 1.74e-010 f/m             mjsw=     0.324          
          php=     0.665 V               pbsw (not used)           
       cjgate=  4.2e-010 f/m            cjswg (not used)           
        mjswg (not used)                 pbswg (not used)           
          la0=     -0.281                lags=    0.04454         
        lketa=     -0.012               lvoff= -0.0009871         
        lvth0=     0.0044                lnlx=-1.584e-008         
          lua=-8.153e-011            lpdiblc2=   0.003012         
          wa0=   -0.04807                wags=   -0.04177         
        wvoff=  -0.009816               wvth0=    -0.0148         
          wua=  2.63e-009               wvsat=     -14200         
        wrdsw=      10.07                wute=    -0.2682         
          wat=      -6405                wprt=      216.6         
          pa0=    0.08661                pags=   -0.04076         
        pvoff=-9.833e-005               pvth0=     0.0032         
          pua= 5.855e-011               pvsat=       -434         
 

 
      
 **info** set option symb=1 internally to help for convergence.
 *****************************************************************
 ******  option summary
 ******
 runlvl  = 6         bypass  = 2         

 **info** dc convergence failure, 
 resetting dcon option to 1 and retrying

 **info** dc convergence successful
 you can increase the efficiency of the
 operating point calculation by setting dcon= 1
 in the .option statement
1****** HSPICE -- D-2010.03-SP2 32-BIT (Aug 26 2010) winnt ******               
 ******  
 *****************

  ******  operating point information tnom=  25.000 temp=  25.000 *****
 ***** operating point status is all       simulation time is     0.     
    node    =voltage      node    =voltage      node    =voltage

 +0:1d      = 532.8624m 0:2d      = 532.8624m 0:3d      =   1.4992 
 +0:7d      =   1.4982  0:8d      =   1.4982  0:10d     = 515.6528m
 +0:15d     =   1.5035  0:16d     =   1.5035  0:sd      = 252.9988m
 +0:vb1     = 514.4020m 0:vb2     =   1.1012  0:vb3     = 547.6869m
 +0:vb4     =   1.0461  0:vcmo    = 900.0000m 0:vdd     =   1.8000 
 +0:vinminus= 800.0000m 0:vinplus = 800.0000m 0:voutminu= 899.1066m
 +0:voutplus= 899.1065m 0:vss     =   0.     


 ****  voltage sources

 subckt                                                         
 element  0:vvdd     0:vvcmo    0:vvinplus 0:vvinminu 0:vss     
  volts      1.8000   900.0000m  800.0000m  800.0000m    0.     
  current -259.9300u    0.         0.         0.         1.5774p
  power    467.8740u    0.         0.         0.         0.     

     total voltage source power dissipation=  467.8740u       watts



 ***** current sources

 subckt                                   
 element  0:i1       0:i2       0:i3      
  volts    698.7676m  547.6869m    1.0461 
  current   50.0000u   50.0000u   50.0000u
  power    -34.9384u  -27.3843u  -52.3035u


     total current source power dissipation=-114.6262u       watts


 **** mosfets


 subckt                                                                    
 element  0:mss      0:m1       0:m2       0:m3       0:m4       0:m5      
 model    0:n_18_mm  0:n_18_mm  0:n_18_mm  0:n_18_mm  0:n_18_mm  0:p_18_mm 
 region     Saturati   Saturati   Saturati   Saturati   Saturati   Saturati
  id       100.0241u   50.0121u   50.0121u   50.0121u   50.0121u  -50.0121u
  ibs     -1.477e-20 -910.4994a -910.4994a   -2.4813f   -2.4813f  658.1423a
  ibd       -2.8730f   -1.9177f   -1.9177f   -4.1868f   -4.1868f    1.9647f
  vgs      514.4020m  547.0012m  547.0012m  568.3700m  568.3700m -950.5324m
  vds      252.9988m  279.8636m  279.8636m  366.2442m  366.2441m -599.1127m
  vbs        0.      -252.9988m -252.9988m -532.8624m -532.8624m  301.7807m
  vth      318.2181m  379.7386m  379.7386m  428.2591m  428.2591m -556.7880m
  vdsat    176.1145m  161.5964m  161.5964m  145.5099m  145.5099m -346.9196m
  vod      196.1839m  167.2627m  167.2627m  140.1109m  140.1109m -393.7444m
  beta       5.8169m    3.6752m    3.6752m    4.7989m    4.7989m  731.7254u
  gam eff  507.4460m  514.0934m  514.0934m  520.6328m  520.6328m  555.0433m
  gm       904.8269u  512.2690u  512.2690u  583.4035u  583.4035u  229.2939u
  gds       19.7707u    7.4572u    7.4572u    5.5989u    5.5989u    1.2240u
  gmb      178.3027u   89.9717u   89.9717u   91.7672u   91.7672u   65.6178u
  cdtot    525.6634f   89.7516f   89.7516f   90.8507f   90.8507f   71.5017f
  cgtot      8.5144p    1.3217p    1.3217p    1.6907p    1.6907p    1.2814p
  cstot      8.6950p    1.3509p    1.3509p    1.7177p    1.7177p    1.4184p
  cbtot      2.5762p  408.0164f  408.0164f  481.3000f  481.3000f  458.9574f
  cgs        7.6647p    1.1954p    1.1954p    1.5396p    1.5396p    1.1823p
  cgd      173.5018f   24.5857f   24.5857f   21.8199f   21.8199f   22.0887f



 subckt                                                                    
 element  0:m6       0:m7       0:m8       0:m9       0:m10      0:m11     
 model    0:p_18_mm  0:p_18_mm  0:p_18_mm  0:n_18_mm  0:n_18_mm  0:p_18_mm 
 region     Saturati   Saturati   Saturati   Saturati   Saturati   Saturati
  id       -50.0121u  -50.0121u  -50.0121u    4.9243u    4.9815u   -2.4907u
  ibs      658.1423a  4.498e-21  4.498e-21 -8.155e-22 -8.250e-22  2.659e-22
  ibd        1.9647f    1.1743f    1.1743f -327.6527a -328.4494a  253.5222a
  vgs     -950.5324m -753.9299m -753.9299m  514.4020m  515.6528m -604.3680m
  vds     -599.1128m -301.7807m -301.7807m  514.4020m  515.6528m -987.8218m
  vbs      301.7807m    0.         0.         0.         0.         0.     
  vth     -556.7880m -470.9680m -470.9680m  319.8853m  319.8823m -495.4926m
  vdsat   -346.9196m -249.6585m -249.6585m  172.7416m  173.6373m -129.5267m
  vod     -393.7444m -282.9619m -282.9619m  194.5166m  195.7705m -108.8755m
  beta     731.7254u    1.4373m    1.4373m  290.4240u  290.4399u  324.7919u
  gam eff  555.0433m  557.0907m  557.0907m  507.4460m  507.4460m  557.0907m
  gm       229.2939u  310.3300u  310.3300u   45.3168u   45.6038u   32.2330u
  gds        1.2240u   11.7161u   11.7161u  222.7891n  224.5680n   98.7617n
  gmb       65.6178u   98.0793u   98.0793u    8.8625u    8.9147u    9.7255u
  cdtot     71.5017f  244.7357f  244.7357f   12.0604f   12.0607f    6.2777f
  cgtot      1.2814p    2.3731p    2.3731p  421.2012f  421.2059f   32.3171f
  cstot      1.4184p    2.6372p    2.6372p  435.4380f  435.4522f   38.6861f
  cbtot    458.9574f  958.2755f  958.2755f  127.3561f  127.3254f   20.2971f
  cgs        1.1823p    2.1386p    2.1386p  383.5308f  383.5629f   27.9116f
  cgd       22.0887f   84.0634f   84.0634f    2.7910f    2.7923f    1.7952f



 subckt                                                                    
 element  0:m12      0:m13      0:m14      0:m15      0:m16      0:mb1     
 model    0:p_18_mm  0:p_18_mm  0:p_18_mm  0:p_18_mm  0:p_18_mm  0:n_18_mm 
 region     Saturati   Saturati   Saturati   Saturati   Saturati   Saturati
  id        -2.4622u   -2.4622u   -2.4907u   -4.9529u   -4.9529u   50.0000u
  ibs      2.629e-22  2.629e-22  2.659e-22  4.896e-22  4.896e-22 -9.945e-21
  ibd      253.8432a  253.8432a  253.5222a  126.8199a  126.8199a -305.3706a
  vgs     -603.4746m -603.4745m -604.3681m -753.9299m -753.9299m    1.1012 
  vds     -989.0726m -989.0726m -987.8218m -296.5254m -296.5255m    1.1012 
  vbs        0.         0.         0.         0.         0.         0.     
  vth     -495.4926m -495.4926m -495.4926m -471.2485m -471.2485m  332.2151m
  vdsat   -128.9002m -128.9001m -129.5267m -251.2061m -251.2061m  619.1498m
  vod     -107.9820m -107.9820m -108.8755m -282.6814m -282.6814m  769.0174m
  beta     324.8648u  324.8648u  324.7919u  141.8149u  141.8149u  207.8714u
  gam eff  557.0907m  557.0907m  557.0907m  557.0907m  557.0907m  507.4469m
  gm        31.9971u   31.9971u   32.2330u   30.6137u   30.6137u  126.4814u
  gds       97.6808n   97.6808n   98.7617n    1.3196u    1.3196u    1.3344u
  gmb        9.6533u    9.6533u    9.7255u    9.7214u    9.7214u   22.9943u
  cdtot      6.2765f    6.2765f    6.2777f   25.7118f   25.7118f    3.8917f
  cgtot     32.2961f   32.2961f   32.3171f  237.2931f  237.2931f   76.9709f
  cstot     38.6540f   38.6540f   38.6861f  263.7580f  263.7580f   80.6565f
  cbtot     20.2960f   20.2960f   20.2971f   96.3587f   96.3587f   23.6670f
  cgs       27.8835f   27.8835f   27.9116f  213.2027f  213.2027f   71.7074f
  cgd        1.7951f    1.7951f    1.7952f    8.9179f    8.9179f    1.0113f



 subckt                                   
 element  0:mb2      0:mb3      0:mb4     
 model    0:p_18_mm  0:p_18_mm  0:p_18_mm 
 region     Saturati   Saturati   Saturati
  id       -50.0000u  -50.0000u  -50.0000u
  ibs      4.765e-21  4.497e-21  655.9180a
  ibd      803.3390a    1.1703f    1.6442f
  vgs       -1.2523  -753.9299m -951.5523m
  vds       -1.2523  -300.7607m -453.1691m
  vbs        0.         0.       300.7607m
  vth     -471.1459m -470.9680m -556.5168m
  vdsat   -655.0605m -249.6585m -347.9340m
  vod     -781.1672m -282.9619m -395.0355m
  beta     194.6869u    1.4373m  731.6082u
  gam eff  557.0907m  557.0907m  555.0497m
  gm       115.8186u  310.0998u  226.4258u
  gds      512.6706n   11.9520u    4.0361u
  gmb       39.7787u   98.0147u   64.9359u
  cdtot     17.2836f  246.4880f   98.0694f
  cgtot    360.8468f    2.3737p    1.2915p
  cstot    411.3448f    2.6372p    1.4178p
  cbtot    137.5789f  958.4035f  461.8539f
  cgs      337.7205f    2.1386p    1.1834p
  cgd        5.2768f   84.8163f   33.4479f




          ***** job concluded
1****** HSPICE -- D-2010.03-SP2 32-BIT (Aug 26 2010) winnt ******               
 ******  
 *****************

  ******  job statistics summary tnom=  25.000 temp=  25.000 *****

  ******  HSPICE Threads Information  ******

  Command Line Threads Count                  :     1
  Available CPU Count                         :     8
  Actual Model Evaluation(Load) Threads Count :     1
  Actual Solver Threads Count                 :     1


  ******  Circuit Statistics  ******
  # nodes       =      63 # elements   =      31
  # resistors   =       0 # capacitors =       2 # inductors   =       0
  # mutual_inds =       0 # vccs       =       0 # vcvs        =       0
  # cccs        =       0 # ccvs       =       0 # volt_srcs   =       5
  # curr_srcs   =       3 # diodes     =       0 # bjts        =       0
  # jfets       =       0 # mosfets    =      21 # U elements  =       0
  # T elements  =       0 # W elements =       0 # B elements  =       0
  # S elements  =       0 # P elements =       0 # va device   =       0


  ******  Runtime Statistics (seconds)  ******

  analysis           time    # points   tot. iter  conv.iter
  op point           0.02           1         244
  ac analysis        0.17        8001        8001
  transient          0.10      100001          60          30 rev=         0
  readin             0.19
  errchk             0.02
  setup              0.02
  output             0.00


           total memory used          469  kbytes
           total cpu time            0.59 seconds
           total elapsed time        0.71 seconds
           job started at     22:36:57 12/14/2022
           job ended   at     22:36:57 12/14/2022


  lic: Release hspice token(s) 
