$DATA1 SOURCE='HSPICE' VERSION='D-2010.03-SP2 32-BIT'
.TITLE 'c:\for_hspice_code\project_file\hspice_on_vs_code\u18_model\u18_spice_m'
 dcgain           gbw              pm               f3db              
 temper           alter#            
    0.7967         3.775e+04          failed           failed         
   25.0000        2                 
