$DATA1 SOURCE='HSPICE' VERSION='D-2010.03-SP2 32-BIT'
.TITLE 'c:\for_hspice_code\project_file\hspice_on_vs_code\u18_model\u18_spice_m'
 gainmax          gbw              pm               f3db              
 avgpower         temper           alter#            
   74.2779         1.242e+07          failed         2.446e+03        
  3.604e-04         25.0000        3                 
