$DATA1 SOURCE='HSPICE' VERSION='D-2010.03-SP2 32-BIT'
.TITLE '*****************'
 gainmax          gbw              pm               f3db              
 avgpower         temper           alter#            
   73.4874         1.275e+07          failed         2.751e+03        
  3.532e-04         25.0000        1                 
