$DATA1 SOURCE='HSPICE' VERSION='D-2010.03-SP2 32-BIT'
.TITLE '*op amp*'
 gainmax          gbw              temper           alter#            
   81.7441         1.214e+07         25.0000        1                 
