$DATA1 SOURCE='HSPICE' VERSION='D-2010.03-SP2 32-BIT'
.TITLE '*op amp*'
 avgpower         temper           alter#            
  1.221e-04         25.0000        1                 
