 ****** HSPICE -- D-2010.03-SP2 32-BIT (Aug 26 2010) winnt ******               
  Copyright (C) 2010 Synopsys, Inc. All Rights Reserved.                        
  Unpublished-rights reserved under US copyright laws.
  This program is protected by law and is subject to the 
  terms and conditions of the license agreement from Synopsys.
  Use of this program is your acceptance to be bound by the 
  license agreement. HSPICE is the trademark of Synopsys, Inc.
  Input File: c:\for_hspice_code\project_file\hspice_on_vs_code\project\op amp\o
  lic:  
  lic: FLEXlm: v10.8 
  lic: USER:   User                 HOSTNAME: LAPTOP-5ELPVJPP 
  lic: HOSTID: "0205857feb81 2016b940a885 2016b940a886 2216b940a885" PID:      1
 7
  lic: Using FLEXlm license file: 
  lic: 27000@localhost 
  lic: Checkout 1 hspice 
  lic: License/Maintenance for hspice will expire on 31-dec-2028/2008.120 
  lic: 1(in_use)/999(total) FLOATING license(s) on SERVER localhost 
  lic:   
 Init: read install configuration file: C:\synopsys\Hspice_D-2010.03-SP2\meta.cfg
1****** HSPICE -- D-2010.03-SP2 32-BIT (Aug 26 2010) winnt ******               
 ******  
 *op amp*

  ******  circuit name directory
 circuit number to circuit name directory
   number circuitname                     definition         multiplier
        0 main circuit
        1 x1.                             opamp              1.00 
  **warning** (c:\for_hspice_code\project_file\hspice_on_vs_code\project\op amp\op_lowgain_cm.sp:31) Capacitance of    1.000E+09 for x1.c1 is too high. Please verify capacitance value.
  **warning** (c:\for_hspice_code\project_file\hspice_on_vs_code\project\op amp\op_lowgain_cm.sp:31) Inductance for the inductor x1.l1 >= 0.1 henry, please verify it.
 ***************************************************************************
 ***        model parameters  model name:   0:p_33.1   model type:pmos   ***
 ***************************************************************************

   *** general parameters ***
    deriv=   0.           

   ***  level 49  model parameters  ***

       hspver=    2006.03               level=         49         
      version=        3.2            paramchk=          0         
       apwarn=          1                lite=          0         
       vgslim=          0             binUnit=          1         
       capMod=          2               xpart=          1         
       mobMod=          1              nqsMod=          0         
       stiMod=          0                 elm=          5         
     sfvtflag=          0                 tox=     7e-009 meter   
           xj=   1.8e-007 meter       binflag=          0         
         lmin=   3.5e-007 meter          lmax=     5e-005 meter   
         wmin=   2.5e-007 meter          wmax=     0.0001 meter   
         lref=          0 meter          wref=          0 meter   
         lint=2.23963e-008 meter          wint=3.36131e-008 meter   
        lmult=          1               wmult=          1         
           ll=3.34369e-018                 lln=    1.47874         
           lw=          0                 lwn=          1         
          lwl=-1.43441e-024                  wl=          0         
          wln=          1                  ww=-7.27358e-019         
          wwn=     1.6333                 wwl=9.74709e-026         
          dwg=-1.43712e-008 m/V             dwb=5.98392e-009 m/V^1/2 
           xl=    -1e-008                  xw=          0         
           a0=    1.07362                 ags=   0.213843 V^-1    
           b0=4.35813e-007 meter            b1=1.73788e-006 meter   
         keta= -0.0103469 V^-1           voff=  -0.223905 V       
        ngate=          0 cm^-3           vbx=          0 V       
          vbm=         -3 V                xt=  1.55e-007 meter   
         vth0=  -0.720436 V               nch=4.30962e+017 cm^-3   
         nsub=     6e+016 cm^-3           nlx=          0 meter   
       gamma1=          0 V^-1/2       gamma2=          0 V^-1/2  
           k1=   0.766742 V^1/2            k2=  0.0542866         
           k3=    2.08926                 k3b=    1.00284 V^-1    
           w0=2.22473e-007 meter          dvt0=    7.39473         
         dvt1=   0.963488                dvt2= 0.00780533 V^-1    
        dvt0w=    1.79697 meter^-1      dvt1w=2.87627e+006 meter^-1
        dvt2w=   0.202624 V^-1           dsub=   0.459428         
         eta0=  0.0542106                etab= -0.0189318 V^-1    
           u0= 0.00807585 m^2/V/sec         ua=-3.97828e-010 m/V     
           ub=1.69475e-018 (m/V)^2          uc=-3.64947e-011 V^-1    
         vsat=     100077 m/sec            a1=       0.01 v^-1    
           a2=   0.921225               delta=       0.01 V       
         rdsw=    627.019 ohm-um         prwg=  0.0334903 V^-1    
         prwb=  -0.772525 V^-1/2           wr=   0.991323         
         pclm=    0.61644             pdiblc1=  0.0122361         
      pdiblc2= 0.00035434             pdiblcb=   0.247788 V^-1    
       pscbe1=4.64276e+008 V/m          pscbe2=  2.87e-005 V/m     
        drout=   0.240141                pvag=    -0.2307         
      nfactor=   0.996415                cdsc= 0.00326567 f/m^2   
        cdscb= 0.00246304 f/V/m^2       cdscd=          0 f/V/m^2 
          cit=0.000533367 f/m^2        alpha0=          0 m/V     
        beta0=         30 V               dlc=2.23963e-008 meter   
          dwc=3.36131e-008 meter           clc=     1e-007 meter   
          cle=        0.6                cgso=   2.6e-010 f/m     
         cgdo=   2.6e-010 f/m            cgbo=     1e-010 f/m     
         cgsl=          0 f/m            cgdl=          0 f/m     
       ckappa=        0.6                  cf= 1.392e-010 f/m     
         acde=          1 m/V            moin=         15 V^1/2   
         toxm=     7e-009 m            dtoxcv=          0 m       
          vfb (not used)                alpha1=          0 1/V     
         ijth=          0 A              noff=          1         
       voffcv=          0                 tcj=          0 1/K     
        tcjsw=          0 1/K          tcjswg=          0 1/K     
          tpb=          0 V/K           tpbsw=          0 V/K     
       tpbswg=          0 V/K             llc=3.34369e-018         
          lwc=          0                lwlc=-1.43441e-024         
          wlc=          0                 wwc=-7.27358e-019         
         wwlc=9.74709e-026                tnom=     300.15 K       
          kt1=  -0.334587 V              kt1l=     1e-008         
          kt2= -0.0574752                 ute=   -1.22772         
          ua1=1.4019e-009 m/V             ub1=-3.4172e-018 (m/V)^2 
          uc1=-1.3931e-010 m/V^2            at=      49500 m/s     
          prt=          0         
          using Berkeley noise model       noiMod=          1         
         noia=   9.9e+018                noib=       2400         
         noic=   1.4e-012                  em=   4.1e+007         
           ef=          1                  af=          1         
           kf=          0              gdsnoi=-1.23457e-029         
          using Hspice diodes            using ACM 
          acm=         3                 hdif=  3.2e-007 meter    
         ldif=         0 meter             js=    9e-005 amp/m^2  
          jsw=  4.9e-012 amp/m            xti=         0          
            n=         1                   cj=0.00129981 f/m^2    
           mj=  0.409694                   pb=  0.761753 V        
         cjsw=2.24324e-010 f/m             mjsw=  0.474468          
          php=  0.929663 V               pbsw (not used)           
       cjgate=2.24324e-010 f/m            cjswg (not used)           
        mjswg (not used)                 pbswg (not used)           
 ***************************************************************************
 ***        model parameters  model name:   0:n_33.1   model type:nmos   ***
 ***************************************************************************

   *** general parameters ***
    deriv=   0.           

   ***  level 49  model parameters  ***

       hspver=    2006.03               level=         49         
      version=        3.2            paramchk=          0         
       apwarn=          1                lite=          0         
       vgslim=          0             binUnit=          2         
       capMod=          2               xpart=          1         
       mobMod=          1              nqsMod=          0         
       stiMod=          0                 elm=          5         
     sfvtflag=          0                 tox=     7e-009 meter   
           xj=   2.5e-007 meter       binflag=          0         
         lmin=   3.5e-007 meter          lmax=     5e-005 meter   
         wmin=   2.5e-007 meter          wmax=     0.0001 meter   
         lref=          0 meter          wref=          0 meter   
         lint=          0 meter          wint=          0 meter   
        lmult=          1               wmult=          1         
           ll=1.21422e-014                 lln=          1         
           lw=          0                 lwn=          1         
          lwl=-2.88567e-022                  wl=          0         
          wln=          1                  ww=-2.00971e-016         
          wwn=          1                 wwl=-1.50178e-021         
          dwg=3.55271e-015 m/V             dwb=   6.2e-009 m/V^1/2 
           xl=   2.2e-008                  xw=          0         
           a0=    1.27527                 ags=   0.267851 V^-1    
           b0=     1e-008 meter            b1=     9e-007 meter   
         keta=      0.005 V^-1           voff=  -0.236086 V       
        ngate=          0 cm^-3           vbx=          0 V       
          vbm=         -3 V                xt=  1.55e-007 meter   
         vth0=   0.592407 V               nch=   1.7e+017 cm^-3   
         nsub=     6e+016 cm^-3           nlx=1.25083e-007 meter   
       gamma1=          0 V^-1/2       gamma2=          0 V^-1/2  
           k1=   0.713754 V^1/2            k2= -0.0258269         
           k3=         62                 k3b=         32 V^-1    
           w0=  5.68e-006 meter          dvt0=     4.7502         
         dvt1=    0.63402                dvt2=  -0.213923 V^-1    
        dvt0w=       0.25 meter^-1      dvt1w=     595000 meter^-1
        dvt2w=          0 V^-1           dsub=      0.521         
         eta0=   0.208078                etab=    -0.0015 V^-1    
           u0=  0.0341296 m^2/V/sec         ua=-5.85469e-010 m/V     
           ub=1.65189e-018 (m/V)^2          uc=5.51773e-011 V^-1    
         vsat=      98280 m/sec            a1=       0.01 v^-1    
           a2=       0.99               delta=       0.01 V       
         rdsw=    595.911 ohm-um         prwg=  0.0230686 V^-1    
         prwb=  0.0571548 V^-1/2           wr=          1         
         pclm=     0.6318             pdiblc1= 0.00094999         
      pdiblc2=      0.001             pdiblcb=          0 V^-1    
       pscbe1=  4.24e+008 V/m          pscbe2=     1e-005 V/m     
        drout=       0.56                pvag=          0         
      nfactor=          1                cdsc=    0.00024 f/m^2   
        cdscb=          0 f/V/m^2       cdscd=    0.00024 f/V/m^2 
          cit=          0 f/m^2        alpha0=          0 m/V     
        beta0=         30 V               dlc=          0 meter   
          dwc=          0 meter           clc=     1e-007 meter   
          cle=        0.6                cgso=   2.7e-010 f/m     
         cgdo=   2.7e-010 f/m            cgbo=     1e-010 f/m     
         cgsl=          0 f/m            cgdl=          0 f/m     
       ckappa=        0.6                  cf= 1.392e-010 f/m     
         acde=          1 m/V            moin=         15 V^1/2   
         toxm=     7e-009 m            dtoxcv=          0 m       
          vfb (not used)                alpha1=          0 1/V     
         ijth=          0 A              noff=          1         
       voffcv=          0                 tcj=          0 1/K     
        tcjsw=          0 1/K          tcjswg=          0 1/K     
          tpb=          0 V/K           tpbsw=          0 V/K     
       tpbswg=          0 V/K             llc=1.21422e-014         
          lwc=          0                lwlc=-2.88567e-022         
          wlc=          0                 wwc=-2.00971e-016         
         wwlc=-1.50178e-021                tnom=     300.15 K       
          kt1=  -0.316608 V              kt1l=          0         
          kt2= -0.0446082                 ute=   -1.60061         
          ua1=4.20288e-011 m/V             ub1=   3.8e-019 (m/V)^2 
          uc1=   2.8e-011 m/V^2            at=        500 m/s     
          prt=   -271.264         
          using Berkeley noise model       noiMod=          1         
         noia=     1e+020                noib=      50000         
         noic=  -1.4e-012                  em=   4.1e+007         
           ef=          1                  af=          1         
           kf=          0              gdsnoi=-1.23457e-029         
          using Hspice diodes            using ACM 
          acm=         3                 hdif=  3.2e-007 meter    
         ldif=         0 meter             js=    1e-005 amp/m^2  
          jsw=  5.2e-011 amp/m            xti=         0          
            n=         1                   cj=0.000767317 f/m^2    
           mj=  0.329933                   pb=  0.713124 V        
         cjsw=1.08867e-010 f/m             mjsw=  0.203671          
          php=  0.434706 V               pbsw (not used)           
       cjgate=  2.9e-010 f/m            cjswg (not used)           
        mjswg (not used)                 pbswg (not used)           
 

 
      
 **info** set option symb=1 internally to help for convergence.
 *****************************************************************
 ******  option summary
 ******
 runlvl  = 6         bypass  = 2         
  Opening plot unit= 79
 file=c:\for_hspice_code\project_file\hspice_on_vs_code\project\op amp\op_lowga

1****** HSPICE -- D-2010.03-SP2 32-BIT (Aug 26 2010) winnt ******               
 ******  
 *op amp*

  ******  operating point information tnom=  25.000 temp=  25.000 *****
 ***** operating point status is all       simulation time is     0.     
    node    =voltage      node    =voltage      node    =voltage

 +0:1       =   2.2737  0:ac_1    =   0.      0:vdd     =   3.3000 
 +0:vin1    =   2.0000  0:vin2    =   2.0000  0:vout    =   2.0000 
 +0:vss     =   0.      1:2       =   2.9440  1:3       = 843.5363m
 +1:4       = 843.5363m 1:5       =   2.0000 


 ****  voltage sources

 subckt                                                         
 element  0:vdd      0:vss      0:vin1     0:vin2     0:vac1    
  volts      3.3000     0.         2.0000     2.0000     0.     
  current  -48.6569u   52.4374u   -5.2805u    0.         0.     
  power    160.5678u    0.        10.5610u    0.         0.     

     total voltage source power dissipation=  171.1288u       watts



 ***** current sources

 subckt             
 element  0:ibias   
  volts      2.2737 
  current    1.5000u
  power     -3.4106u


     total current source power dissipation=  -3.4106u       watts

 **** resistors

 subckt   x1         x1        
 element  1:rz       1:rl      
  r value   13.0000k  400.0000k
  v drop     0.         2.0000 
  current    0.         5.0000u
  power      0.        10.0000u



 **** mosfets


 subckt   x1         x1         x1         x1         x1         x1        
 element  1:m1       1:m2       1:m3       1:m4       1:m5       1:m6      
 model    0:p_33.1   0:p_33.1   0:n_33.1   0:n_33.1   0:n_33.1   0:p_33.1  
 region     Saturati   Saturati   Saturati   Saturati   Saturati   Saturati
  id        -6.6850u   -6.6850u    6.6850u    6.6850u   34.0674u   -1.5000u
  ibs      8.632e-22  8.632e-22 -1.569e-21 -1.569e-21 -7.993e-21  1.804e-22
  ibd      847.5987a  847.5987a -231.9395a -231.9395a   -2.7496f  192.9074a
  vgs     -943.9628m -943.9628m  843.5363m  843.5363m  843.5363m   -1.0263 
  vds       -2.1004    -2.1004   843.5363m  843.5363m    2.0000    -1.0263 
  vbs        0.         0.         0.         0.         0.         0.     
  vth     -733.6257m -733.6257m  688.3119m  688.3119m  687.8888m -725.7806m
  vdsat   -186.4149m -186.4149m  149.6803m  149.6803m  149.9494m -247.6787m
  vod     -210.3372m -210.3372m  155.2244m  155.2244m  155.6475m -300.5011m
  beta     322.4594u  322.4594u  539.3165u  539.3165u    2.6966m   39.9132u
  gam eff  664.3077m  664.3077m  761.1513m  761.1513m  761.1513m  664.3077m
  gm        52.4234u   52.4234u   65.8193u   65.8193u  333.7432u    9.0138u
  gds       59.6337n   59.6337n  150.9375n  150.9375n  473.2336n    6.8204n
  gmb       23.2091u   23.2091u   21.0063u   21.0063u  106.4709u    3.9783u
  cdtot     10.2294f   10.2294f    3.6686f    3.6686f   16.5796f    5.4027f
  cgtot     35.3135f   35.3135f   14.7490f   14.7490f   73.7304f   64.4622f
  cstot     49.3058f   49.3058f   17.3874f   17.3874f   86.9598f   81.3603f
  cbtot     32.6653f   32.6653f   10.6142f   10.6142f   51.3229f   36.7225f
  cgs       29.9537f   29.9537f   11.6909f   11.6909f   58.4392f   58.7795f
  cgd        3.0031f    3.0031f    1.2303f    1.2303f    6.1448f    1.5817f



 subckt   x1         x1        
 element  1:m7       1:m8      
 model    0:p_33.1   0:p_33.1  
 region     Saturati   Saturati
  id       -13.3700u  -33.7868u
  ibs      1.608e-21  4.065e-21
  ibd      602.3091a    5.4980f
  vgs       -1.0263    -1.0263 
  vds     -356.0372m   -1.3000 
  vbs        0.         0.     
  vth     -725.7806m -725.7807m
  vdsat   -247.6787m -247.6787m
  vod     -300.5011m -300.5011m
  beta     359.2187u  898.0467u
  gam eff  664.3077m  664.3077m
  gm        79.6908u  203.0270u
  gds        1.0861u  120.0570n
  gmb       35.1970u   89.6097u
  cdtot     70.6936f  116.2534f
  cgtot    585.8666f    1.4502p
  cstot    730.6137f    1.8308p
  cbtot    339.4599f  821.2183f
  cgs      530.9145f    1.3223p
  cgd       20.3398f   35.4462f



 ******  
 *op amp*

  ******  ac analysis tnom=  25.000 temp=  25.000 *****
   avgpower=  1.6772E-04  from=  1.0000E-06     to=  3.9000E-05

          ***** job concluded
1****** HSPICE -- D-2010.03-SP2 32-BIT (Aug 26 2010) winnt ******               
 ******  
 *op amp*

  ******  job statistics summary tnom=  25.000 temp=  25.000 *****

  ******  HSPICE Threads Information  ******

  Command Line Threads Count                  :     1
  Available CPU Count                         :     8
  Actual Model Evaluation(Load) Threads Count :     1
  Actual Solver Threads Count                 :     1


  ******  Circuit Statistics  ******
  # nodes       =      28 # elements   =      20
  # resistors   =       2 # capacitors =       3 # inductors   =       1
  # mutual_inds =       0 # vccs       =       0 # vcvs        =       0
  # cccs        =       0 # ccvs       =       0 # volt_srcs   =       5
  # curr_srcs   =       1 # diodes     =       0 # bjts        =       0
  # jfets       =       0 # mosfets    =       8 # U elements  =       0
  # T elements  =       0 # W elements =       0 # B elements  =       0
  # S elements  =       0 # P elements =       0 # va device   =       0


  ******  Runtime Statistics (seconds)  ******

  analysis           time    # points   tot. iter  conv.iter
  op point           0.01           1          17
  ac analysis        0.11        9001        9001
  readin             0.13
  errchk             0.02
  setup              0.02
  output             0.00


           total memory used          472  kbytes
           total cpu time            0.32 seconds
           total elapsed time        0.40 seconds
           job started at     22:10:54 12/18/2022
           job ended   at     22:10:54 12/18/2022


1****** HSPICE -- D-2010.03-SP2 32-BIT (Aug 26 2010) winnt ******               
 ******  
 c:\for_hspice_code\project_file\hspice_on_vs_code\cic018.l

  ******  circuit name directory
 circuit number to circuit name directory
   number circuitname                     definition         multiplier
        0 main circuit
        1 x1.                             opamp              1.00 
  **warning** (c:\for_hspice_code\project_file\hspice_on_vs_code\project\op amp\op_lowgain_cm.sp:31) Capacitance of    1.000E+09 for x1.c1 is too high. Please verify capacitance value.
  **warning** (c:\for_hspice_code\project_file\hspice_on_vs_code\project\op amp\op_lowgain_cm.sp:31) Inductance for the inductor x1.l1 >= 0.1 henry, please verify it.
 ***************************************************************************
 ***        model parameters  model name:   0:p_33.1   model type:pmos   ***
 ***************************************************************************

   *** general parameters ***
    deriv=   0.           

   ***  level 49  model parameters  ***

       hspver=    2006.03               level=         49         
      version=        3.2            paramchk=          0         
       apwarn=          1                lite=          0         
       vgslim=          0             binUnit=          1         
       capMod=          2               xpart=          1         
       mobMod=          1              nqsMod=          0         
       stiMod=          0                 elm=          5         
     sfvtflag=          0                 tox=   6.4e-009 meter   
           xj=   1.8e-007 meter       binflag=          0         
         lmin=   3.5e-007 meter          lmax=     5e-005 meter   
         wmin=   2.5e-007 meter          wmax=     0.0001 meter   
         lref=          0 meter          wref=          0 meter   
         lint=3.44963e-008 meter          wint=2.36131e-008 meter   
        lmult=          1               wmult=          1         
           ll=3.34369e-018                 lln=    1.47874         
           lw=          0                 lwn=          1         
          lwl=-1.43441e-024                  wl=          0         
          wln=          1                  ww=-7.27358e-019         
          wwn=     1.6333                 wwl=9.74709e-026         
          dwg=-1.43712e-008 m/V             dwb=5.98392e-009 m/V^1/2 
           xl=    -1e-008                  xw=          0         
           a0=    1.07362                 ags=   0.213843 V^-1    
           b0=4.35813e-007 meter            b1=1.73788e-006 meter   
         keta= -0.0103469 V^-1           voff=  -0.223905 V       
        ngate=          0 cm^-3           vbx=          0 V       
          vbm=         -3 V                xt=  1.55e-007 meter   
         vth0=  -0.670435 V               nch=4.30962e+017 cm^-3   
         nsub=     6e+016 cm^-3           nlx=          0 meter   
       gamma1=          0 V^-1/2       gamma2=          0 V^-1/2  
           k1=   0.766742 V^1/2            k2=  0.0542866         
           k3=    2.08926                 k3b=    1.00284 V^-1    
           w0=2.22473e-007 meter          dvt0=    7.39473         
         dvt1=   0.963488                dvt2= 0.00780533 V^-1    
        dvt0w=    1.79697 meter^-1      dvt1w=2.87627e+006 meter^-1
        dvt2w=   0.202624 V^-1           dsub=   0.459428         
         eta0=  0.0542106                etab= -0.0189318 V^-1    
           u0= 0.00807585 m^2/V/sec         ua=-3.97828e-010 m/V     
           ub=1.69475e-018 (m/V)^2          uc=-3.64947e-011 V^-1    
         vsat=     100077 m/sec            a1=       0.01 v^-1    
           a2=   0.921225               delta=       0.01 V       
         rdsw=    627.019 ohm-um         prwg=  0.0334903 V^-1    
         prwb=  -0.772525 V^-1/2           wr=   0.991323         
         pclm=    0.61644             pdiblc1=  0.0122361         
      pdiblc2= 0.00035434             pdiblcb=   0.247788 V^-1    
       pscbe1=4.64276e+008 V/m          pscbe2=  2.87e-005 V/m     
        drout=   0.240141                pvag=    -0.2307         
      nfactor=   0.996415                cdsc= 0.00326567 f/m^2   
        cdscb= 0.00246304 f/V/m^2       cdscd=          0 f/V/m^2 
          cit=0.000533367 f/m^2        alpha0=          0 m/V     
        beta0=         30 V               dlc=3.44963e-008 meter   
          dwc=2.36131e-008 meter           clc=     1e-007 meter   
          cle=        0.6                cgso=  2.87e-010 f/m     
         cgdo=  2.86e-010 f/m            cgbo=     1e-010 f/m     
         cgsl=          0 f/m            cgdl=          0 f/m     
       ckappa=        0.6                  cf= 1.392e-010 f/m     
         acde=          1 m/V            moin=         15 V^1/2   
         toxm=   6.4e-009 m            dtoxcv=          0 m       
          vfb (not used)                alpha1=          0 1/V     
         ijth=          0 A              noff=          1         
       voffcv=          0                 tcj=          0 1/K     
        tcjsw=          0 1/K          tcjswg=          0 1/K     
          tpb=          0 V/K           tpbsw=          0 V/K     
       tpbswg=          0 V/K             llc=3.34369e-018         
          lwc=          0                lwlc=-1.43441e-024         
          wlc=          0                 wwc=-7.27358e-019         
         wwlc=9.74709e-026                tnom=     300.15 K       
          kt1=  -0.334587 V              kt1l=     1e-008         
          kt2= -0.0574752                 ute=   -1.22772         
          ua1=1.4019e-009 m/V             ub1=-3.4172e-018 (m/V)^2 
          uc1=-1.3931e-010 m/V^2            at=      49500 m/s     
          prt=          0         
          using Berkeley noise model       noiMod=          1         
         noia=   9.9e+018                noib=       2400         
         noic=   1.4e-012                  em=   4.1e+007         
           ef=          1                  af=          1         
           kf=          0              gdsnoi=-1.23457e-029         
          using Hspice diodes            using ACM 
          acm=         3                 hdif=  3.2e-007 meter    
         ldif=         0 meter             js=    9e-005 amp/m^2  
          jsw=  4.9e-012 amp/m            xti=         0          
            n=         1                   cj=0.00129981 f/m^2    
           mj=  0.409694                   pb=  0.761753 V        
         cjsw=2.24324e-010 f/m             mjsw=  0.474468          
          php=  0.929663 V               pbsw (not used)           
       cjgate=2.24324e-010 f/m            cjswg (not used)           
        mjswg (not used)                 pbswg (not used)           
 ***************************************************************************
 ***        model parameters  model name:   0:n_33.1   model type:nmos   ***
 ***************************************************************************

   *** general parameters ***
    deriv=   0.           

   ***  level 49  model parameters  ***

       hspver=    2006.03               level=         49         
      version=        3.2            paramchk=          0         
       apwarn=          1                lite=          0         
       vgslim=          0             binUnit=          2         
       capMod=          2               xpart=          1         
       mobMod=          1              nqsMod=          0         
       stiMod=          0                 elm=          5         
     sfvtflag=          0                 tox=   6.4e-009 meter   
           xj=   2.5e-007 meter       binflag=          0         
         lmin=   3.5e-007 meter          lmax=     5e-005 meter   
         wmin=   2.5e-007 meter          wmax=     0.0001 meter   
         lref=          0 meter          wref=          0 meter   
         lint=   9.3e-009 meter          wint=    -3e-009 meter   
        lmult=          1               wmult=          1         
           ll=1.21422e-014                 lln=          1         
           lw=          0                 lwn=          1         
          lwl=-2.88567e-022                  wl=          0         
          wln=          1                  ww=-2.00971e-016         
          wwn=          1                 wwl=-1.50178e-021         
          dwg=3.55271e-015 m/V             dwb=   6.2e-009 m/V^1/2 
           xl=   2.2e-008                  xw=          0         
           a0=    1.27527                 ags=   0.267851 V^-1    
           b0=     1e-008 meter            b1=     9e-007 meter   
         keta=      0.005 V^-1           voff=  -0.236086 V       
        ngate=          0 cm^-3           vbx=          0 V       
          vbm=         -3 V                xt=  1.55e-007 meter   
         vth0=   0.542407 V               nch=   1.7e+017 cm^-3   
         nsub=     6e+016 cm^-3           nlx=1.25083e-007 meter   
       gamma1=          0 V^-1/2       gamma2=          0 V^-1/2  
           k1=   0.713754 V^1/2            k2= -0.0258269         
           k3=         62                 k3b=         32 V^-1    
           w0=  5.68e-006 meter          dvt0=     4.7502         
         dvt1=    0.63402                dvt2=  -0.213923 V^-1    
        dvt0w=       0.25 meter^-1      dvt1w=     595000 meter^-1
        dvt2w=          0 V^-1           dsub=      0.521         
         eta0=   0.208078                etab=    -0.0015 V^-1    
           u0=  0.0341296 m^2/V/sec         ua=-5.85469e-010 m/V     
           ub=1.65189e-018 (m/V)^2          uc=5.51773e-011 V^-1    
         vsat=      98280 m/sec            a1=       0.01 v^-1    
           a2=       0.99               delta=       0.01 V       
         rdsw=    595.911 ohm-um         prwg=  0.0230686 V^-1    
         prwb=  0.0571548 V^-1/2           wr=          1         
         pclm=     0.6318             pdiblc1= 0.00094999         
      pdiblc2=      0.001             pdiblcb=          0 V^-1    
       pscbe1=  4.24e+008 V/m          pscbe2=     1e-005 V/m     
        drout=       0.56                pvag=          0         
      nfactor=          1                cdsc=    0.00024 f/m^2   
        cdscb=          0 f/V/m^2       cdscd=    0.00024 f/V/m^2 
          cit=          0 f/m^2        alpha0=          0 m/V     
        beta0=         30 V               dlc=   9.3e-009 meter   
          dwc=    -3e-009 meter           clc=     1e-007 meter   
          cle=        0.6                cgso=  2.92e-010 f/m     
         cgdo=  2.97e-010 f/m            cgbo=     1e-010 f/m     
         cgsl=          0 f/m            cgdl=          0 f/m     
       ckappa=        0.6                  cf= 1.392e-010 f/m     
         acde=          1 m/V            moin=         15 V^1/2   
         toxm=   6.4e-009 m            dtoxcv=          0 m       
          vfb (not used)                alpha1=          0 1/V     
         ijth=          0 A              noff=          1         
       voffcv=          0                 tcj=          0 1/K     
        tcjsw=          0 1/K          tcjswg=          0 1/K     
          tpb=          0 V/K           tpbsw=          0 V/K     
       tpbswg=          0 V/K             llc=1.21422e-014         
          lwc=          0                lwlc=-2.88567e-022         
          wlc=          0                 wwc=-2.00971e-016         
         wwlc=-1.50178e-021                tnom=     300.15 K       
          kt1=  -0.316608 V              kt1l=          0         
          kt2= -0.0446082                 ute=   -1.60061         
          ua1=4.20288e-011 m/V             ub1=   3.8e-019 (m/V)^2 
          uc1=   2.8e-011 m/V^2            at=        500 m/s     
          prt=   -271.264         
          using Berkeley noise model       noiMod=          1         
         noia=     1e+020                noib=      50000         
         noic=  -1.4e-012                  em=   4.1e+007         
           ef=          1                  af=          1         
           kf=          0              gdsnoi=-1.23457e-029         
          using Hspice diodes            using ACM 
          acm=         3                 hdif=  3.2e-007 meter    
         ldif=         0 meter             js=    1e-005 amp/m^2  
          jsw=  5.2e-011 amp/m            xti=         0          
            n=         1                   cj=0.000767317 f/m^2    
           mj=  0.329933                   pb=  0.713124 V        
         cjsw=1.08867e-010 f/m             mjsw=  0.203671          
          php=  0.434706 V               pbsw (not used)           
       cjgate=  2.9e-010 f/m            cjswg (not used)           
        mjswg (not used)                 pbswg (not used)           
 
      
 **info** set option symb=1 internally to help for convergence.
 *****************************************************************
 ******  option summary
 ******
 runlvl  = 6         bypass  = 2         
  Opening plot unit= 79
 file=c:\for_hspice_code\project_file\hspice_on_vs_code\project\op amp\op_lowga

1****** HSPICE -- D-2010.03-SP2 32-BIT (Aug 26 2010) winnt ******               
 ******  
 c:\for_hspice_code\project_file\hspice_on_vs_code\cic018.l

  ******  operating point information tnom=  25.000 temp=  25.000 *****
 ***** operating point status is all       simulation time is     0.     
    node    =voltage      node    =voltage      node    =voltage

 +0:1       =   2.3396  0:ac_1    =   0.      0:vdd     =   3.3000 
 +0:vin1    =   2.0000  0:vin2    =   2.0000  0:vout    =   2.0000 
 +0:vss     =   0.      1:2       =   2.8772  1:3       = 779.3513m
 +1:4       = 779.3513m 1:5       =   2.0000 


 ****  voltage sources

 subckt                                                         
 element  0:vdd      0:vss      0:vin1     0:vin2     0:vac1    
  volts      3.3000     0.         2.0000     2.0000     0.     
  current  -48.7223u   52.6720u   -5.4497u    0.         0.     
  power    160.7837u    0.        10.8994u    0.         0.     

     total voltage source power dissipation=  171.6830u       watts



 ***** current sources

 subckt             
 element  0:ibias   
  volts      2.3396 
  current    1.5000u
  power     -3.5094u


     total current source power dissipation=  -3.5094u       watts

 **** resistors

 subckt   x1         x1        
 element  1:rz       1:rl      
  r value   13.0000k  400.0000k
  v drop     0.         2.0000 
  current    0.         5.0000u
  power      0.        10.0000u



 **** mosfets


 subckt   x1         x1         x1         x1         x1         x1        
 element  1:m1       1:m2       1:m3       1:m4       1:m5       1:m6      
 model    0:p_33.1   0:p_33.1   0:n_33.1   0:n_33.1   0:n_33.1   0:p_33.1  
 region     Saturati   Saturati   Saturati   Saturati   Saturati   Saturati
  id        -6.7129u   -6.7129u    6.7129u    6.7129u   34.2461u   -1.5000u
  ibs      8.668e-22  8.668e-22 -1.575e-21 -1.575e-21 -8.035e-21  1.804e-22
  ibd      846.5638a  846.5638a -214.2910a -214.2910a   -2.7496f  180.5282a
  vgs     -877.2132m -877.2132m  779.3513m  779.3513m  779.3513m -960.4235m
  vds       -2.0979    -2.0979   779.3513m  779.3513m    2.0000  -960.4235m
  vbs        0.         0.         0.         0.         0.         0.     
  vth     -682.5108m -682.5108m  634.4512m  634.4512m  634.0736m -675.4984m
  vdsat   -176.0228m -176.0228m  143.0005m  143.0005m  143.2385m -236.6917m
  vod     -194.7024m -194.7024m  144.9001m  144.9001m  145.2777m -284.9252m
  beta     368.8086u  368.8086u  604.4628u  604.4628u    3.0223m   44.0340u
  gam eff  664.3077m  664.3077m  761.1513m  761.1513m  761.1513m  664.3077m
  gm        55.7263u   55.7263u   69.1543u   69.1543u  350.9585u    9.4346u
  gds       60.4001n   60.4001n  157.9942n  157.9942n  471.0145n    7.2027n
  gmb       24.7979u   24.7979u   22.3185u   22.3185u  113.2205u    4.1848u
  cdtot     10.4958f   10.4958f    3.7883f    3.7883f   17.0252f    5.5809f
  cgtot     38.3480f   38.3480f   15.8538f   15.8538f   79.2496f   70.3490f
  cstot     52.5281f   52.5281f   18.5006f   18.5006f   92.5325f   88.3589f
  cbtot     33.7472f   33.7472f   11.0342f   11.0342f   53.2739f   39.3572f
  cgs       32.5783f   32.5783f   12.5976f   12.5976f   62.9687f   64.1537f
  cgd        3.2669f    3.2669f    1.3201f    1.3201f    6.5916f    1.6955f



 subckt   x1         x1        
 element  1:m7       1:m8      
 model    0:p_33.1   0:p_33.1  
 region     Saturati   Saturati
  id       -13.4258u  -33.7964u
  ibs      1.615e-21  4.066e-21
  ibd      715.2300a    5.4980f
  vgs     -960.4235m -960.4235m
  vds     -422.7868m   -1.3000 
  vbs        0.         0.     
  vth     -675.4984m -675.4984m
  vdsat   -236.6917m -236.6917m
  vod     -284.9252m -284.9252m
  beta     396.3057u  990.7642u
  gam eff  664.3077m  664.3077m
  gm        84.2251u  212.5620u
  gds      415.8831n  118.3758n
  gmb       37.3655u   94.2863u
  cdtot     62.6221f  118.7489f
  cgtot    636.0253f    1.5825p
  cstot    794.1019f    1.9883p
  cbtot    360.8759f  879.1121f
  cgs      578.7166f    1.4432p
  cgd       17.9795f   37.9400f



 ******  
 c:\for_hspice_code\project_file\hspice_on_vs_code\cic018.l

  ******  ac analysis tnom=  25.000 temp=  25.000 *****
   avgpower=  1.6817E-04  from=  1.0000E-06     to=  3.9000E-05

          ***** job concluded
1****** HSPICE -- D-2010.03-SP2 32-BIT (Aug 26 2010) winnt ******               
 ******  
 c:\for_hspice_code\project_file\hspice_on_vs_code\cic018.l

  ******  job statistics summary tnom=  25.000 temp=  25.000 *****

  ******  HSPICE Threads Information  ******

  Command Line Threads Count                  :     1
  Available CPU Count                         :     8
  Actual Model Evaluation(Load) Threads Count :     1
  Actual Solver Threads Count                 :     1


  ******  Circuit Statistics  ******
  # nodes       =      28 # elements   =      20
  # resistors   =       2 # capacitors =       3 # inductors   =       1
  # mutual_inds =       0 # vccs       =       0 # vcvs        =       0
  # cccs        =       0 # ccvs       =       0 # volt_srcs   =       5
  # curr_srcs   =       1 # diodes     =       0 # bjts        =       0
  # jfets       =       0 # mosfets    =       8 # U elements  =       0
  # T elements  =       0 # W elements =       0 # B elements  =       0
  # S elements  =       0 # P elements =       0 # va device   =       0


  ******  Runtime Statistics (seconds)  ******

  analysis           time    # points   tot. iter  conv.iter
  op point           0.01           1          16
  ac analysis        0.12        9001        9001
  readin             0.12
  errchk             0.02
  setup              0.02
  output             0.00


           total memory used          473  kbytes
           total cpu time            0.33 seconds
           total elapsed time        0.36 seconds
           job started at     22:10:54 12/18/2022
           job ended   at     22:10:55 12/18/2022


1****** HSPICE -- D-2010.03-SP2 32-BIT (Aug 26 2010) winnt ******               
 ******  
 c:\for_hspice_code\project_file\hspice_on_vs_code\cic018.l

  ******  circuit name directory
 circuit number to circuit name directory
   number circuitname                     definition         multiplier
        0 main circuit
        1 x1.                             opamp              1.00 
  **warning** (c:\for_hspice_code\project_file\hspice_on_vs_code\project\op amp\op_lowgain_cm.sp:31) Capacitance of    1.000E+09 for x1.c1 is too high. Please verify capacitance value.
  **warning** (c:\for_hspice_code\project_file\hspice_on_vs_code\project\op amp\op_lowgain_cm.sp:31) Inductance for the inductor x1.l1 >= 0.1 henry, please verify it.
 ***************************************************************************
 ***        model parameters  model name:   0:p_33.1   model type:pmos   ***
 ***************************************************************************

   *** general parameters ***
    deriv=   0.           

   ***  level 49  model parameters  ***

       hspver=    2006.03               level=         49         
      version=        3.2            paramchk=          0         
       apwarn=          1                lite=          0         
       vgslim=          0             binUnit=          1         
       capMod=          2               xpart=          1         
       mobMod=          1              nqsMod=          0         
       stiMod=          0                 elm=          5         
     sfvtflag=          0                 tox=   7.5e-009 meter   
           xj=   1.8e-007 meter       binflag=          0         
         lmin=   3.5e-007 meter          lmax=     5e-005 meter   
         wmin=   2.5e-007 meter          wmax=     0.0001 meter   
         lref=          0 meter          wref=          0 meter   
         lint=9.00032e-009 meter          wint=6.36131e-008 meter   
        lmult=          1               wmult=          1         
           ll=3.34369e-018                 lln=    1.47874         
           lw=          0                 lwn=          1         
          lwl=-1.43441e-024                  wl=          0         
          wln=          1                  ww=-7.27358e-019         
          wwn=     1.6333                 wwl=9.74709e-026         
          dwg=-1.43712e-008 m/V             dwb=5.98392e-009 m/V^1/2 
           xl=    -1e-008                  xw=          0         
           a0=    1.07362                 ags=   0.213843 V^-1    
           b0=4.35813e-007 meter            b1=1.73788e-006 meter   
         keta= -0.0103469 V^-1           voff=  -0.223905 V       
        ngate=          0 cm^-3           vbx=          0 V       
          vbm=         -3 V                xt=  1.55e-007 meter   
         vth0=  -0.780436 V               nch=4.30962e+017 cm^-3   
         nsub=     6e+016 cm^-3           nlx=          0 meter   
       gamma1=          0 V^-1/2       gamma2=          0 V^-1/2  
           k1=   0.766742 V^1/2            k2=  0.0542866         
           k3=    2.08926                 k3b=    1.00284 V^-1    
           w0=2.22473e-007 meter          dvt0=    7.39473         
         dvt1=   0.963488                dvt2= 0.00780533 V^-1    
        dvt0w=    1.79697 meter^-1      dvt1w=2.87627e+006 meter^-1
        dvt2w=   0.202624 V^-1           dsub=   0.459428         
         eta0=  0.0542106                etab= -0.0189318 V^-1    
           u0= 0.00807585 m^2/V/sec         ua=-3.97828e-010 m/V     
           ub=1.69475e-018 (m/V)^2          uc=-3.64947e-011 V^-1    
         vsat=     100077 m/sec            a1=       0.01 v^-1    
           a2=   0.921225               delta=       0.01 V       
         rdsw=    627.019 ohm-um         prwg=  0.0334903 V^-1    
         prwb=  -0.772525 V^-1/2           wr=   0.991323         
         pclm=    0.61644             pdiblc1=  0.0122361         
      pdiblc2= 0.00035434             pdiblcb=   0.247788 V^-1    
       pscbe1=4.64276e+008 V/m          pscbe2=  2.87e-005 V/m     
        drout=   0.240141                pvag=    -0.2307         
      nfactor=   0.996415                cdsc= 0.00326567 f/m^2   
        cdscb= 0.00246304 f/V/m^2       cdscd=          0 f/V/m^2 
          cit=0.000533367 f/m^2        alpha0=          0 m/V     
        beta0=         30 V               dlc=9.00032e-009 meter   
          dwc=6.36131e-008 meter           clc=     1e-007 meter   
          cle=        0.6                cgso=  2.34e-010 f/m     
         cgdo=  2.34e-010 f/m            cgbo=     1e-010 f/m     
         cgsl=          0 f/m            cgdl=          0 f/m     
       ckappa=        0.6                  cf= 1.392e-010 f/m     
         acde=          1 m/V            moin=         15 V^1/2   
         toxm=   7.5e-009 m            dtoxcv=          0 m       
          vfb (not used)                alpha1=          0 1/V     
         ijth=          0 A              noff=          1         
       voffcv=          0                 tcj=          0 1/K     
        tcjsw=          0 1/K          tcjswg=          0 1/K     
          tpb=          0 V/K           tpbsw=          0 V/K     
       tpbswg=          0 V/K             llc=3.34369e-018         
          lwc=          0                lwlc=-1.43441e-024         
          wlc=          0                 wwc=-7.27358e-019         
         wwlc=9.74709e-026                tnom=     300.15 K       
          kt1=  -0.334587 V              kt1l=     1e-008         
          kt2= -0.0574752                 ute=   -1.22772         
          ua1=1.4019e-009 m/V             ub1=-3.4172e-018 (m/V)^2 
          uc1=-1.3931e-010 m/V^2            at=      49500 m/s     
          prt=          0         
          using Berkeley noise model       noiMod=          1         
         noia=   9.9e+018                noib=       2400         
         noic=   1.4e-012                  em=   4.1e+007         
           ef=          1                  af=          1         
           kf=          0              gdsnoi=-1.23457e-029         
          using Hspice diodes            using ACM 
          acm=         3                 hdif=  3.2e-007 meter    
         ldif=         0 meter             js=    9e-005 amp/m^2  
          jsw=  4.9e-012 amp/m            xti=         0          
            n=         1                   cj=0.00129981 f/m^2    
           mj=  0.409694                   pb=  0.761753 V        
         cjsw=2.24324e-010 f/m             mjsw=  0.474468          
          php=  0.929663 V               pbsw (not used)           
       cjgate=2.24324e-010 f/m            cjswg (not used)           
        mjswg (not used)                 pbswg (not used)           
 ***************************************************************************
 ***        model parameters  model name:   0:n_33.1   model type:nmos   ***
 ***************************************************************************

   *** general parameters ***
    deriv=   0.           

   ***  level 49  model parameters  ***

       hspver=    2006.03               level=         49         
      version=        3.2            paramchk=          0         
       apwarn=          1                lite=          0         
       vgslim=          0             binUnit=          2         
       capMod=          2               xpart=          1         
       mobMod=          1              nqsMod=          0         
       stiMod=          0                 elm=          5         
     sfvtflag=          0                 tox=   7.5e-009 meter   
           xj=   2.5e-007 meter       binflag=          0         
         lmin=   3.5e-007 meter          lmax=     5e-005 meter   
         wmin=   2.5e-007 meter          wmax=     0.0001 meter   
         lref=          0 meter          wref=          0 meter   
         lint= -1.23e-008 meter          wint=     9e-009 meter   
        lmult=          1               wmult=          1         
           ll=1.21422e-014                 lln=          1         
           lw=          0                 lwn=          1         
          lwl=-2.88567e-022                  wl=          0         
          wln=          1                  ww=-2.00971e-016         
          wwn=          1                 wwl=-1.50178e-021         
          dwg=3.55271e-015 m/V             dwb=   6.2e-009 m/V^1/2 
           xl=   2.2e-008                  xw=          0         
           a0=    1.27527                 ags=   0.267851 V^-1    
           b0=     1e-008 meter            b1=     9e-007 meter   
         keta=      0.005 V^-1           voff=  -0.236086 V       
        ngate=          0 cm^-3           vbx=          0 V       
          vbm=         -3 V                xt=  1.55e-007 meter   
         vth0=   0.652407 V               nch=   1.7e+017 cm^-3   
         nsub=     6e+016 cm^-3           nlx=1.25083e-007 meter   
       gamma1=          0 V^-1/2       gamma2=          0 V^-1/2  
           k1=   0.713754 V^1/2            k2= -0.0258269         
           k3=         62                 k3b=         32 V^-1    
           w0=  5.68e-006 meter          dvt0=     4.7502         
         dvt1=    0.63402                dvt2=  -0.213923 V^-1    
        dvt0w=       0.25 meter^-1      dvt1w=     595000 meter^-1
        dvt2w=          0 V^-1           dsub=      0.521         
         eta0=   0.208078                etab=    -0.0015 V^-1    
           u0=  0.0341296 m^2/V/sec         ua=-5.85469e-010 m/V     
           ub=1.65189e-018 (m/V)^2          uc=5.51773e-011 V^-1    
         vsat=      98280 m/sec            a1=       0.01 v^-1    
           a2=       0.99               delta=       0.01 V       
         rdsw=    595.911 ohm-um         prwg=  0.0230686 V^-1    
         prwb=  0.0571548 V^-1/2           wr=          1         
         pclm=     0.6318             pdiblc1= 0.00094999         
      pdiblc2=      0.001             pdiblcb=          0 V^-1    
       pscbe1=  4.24e+008 V/m          pscbe2=     1e-005 V/m     
        drout=       0.56                pvag=          0         
      nfactor=          1                cdsc=    0.00024 f/m^2   
        cdscb=          0 f/V/m^2       cdscd=    0.00024 f/V/m^2 
          cit=          0 f/m^2        alpha0=          0 m/V     
        beta0=         30 V               dlc= -1.23e-008 meter   
          dwc=     9e-009 meter           clc=     1e-007 meter   
          cle=        0.6                cgso=  2.43e-010 f/m     
         cgdo=  2.43e-010 f/m            cgbo=     1e-010 f/m     
         cgsl=          0 f/m            cgdl=          0 f/m     
       ckappa=        0.6                  cf= 1.392e-010 f/m     
         acde=          1 m/V            moin=         15 V^1/2   
         toxm=   7.5e-009 m            dtoxcv=          0 m       
          vfb (not used)                alpha1=          0 1/V     
         ijth=          0 A              noff=          1         
       voffcv=          0                 tcj=          0 1/K     
        tcjsw=          0 1/K          tcjswg=          0 1/K     
          tpb=          0 V/K           tpbsw=          0 V/K     
       tpbswg=          0 V/K             llc=1.21422e-014         
          lwc=          0                lwlc=-2.88567e-022         
          wlc=          0                 wwc=-2.00971e-016         
         wwlc=-1.50178e-021                tnom=     300.15 K       
          kt1=  -0.316608 V              kt1l=          0         
          kt2= -0.0446082                 ute=   -1.60061         
          ua1=4.20288e-011 m/V             ub1=   3.8e-019 (m/V)^2 
          uc1=   2.8e-011 m/V^2            at=        500 m/s     
          prt=   -271.264         
          using Berkeley noise model       noiMod=          1         
         noia=     1e+020                noib=      50000         
         noic=  -1.4e-012                  em=   4.1e+007         
           ef=          1                  af=          1         
           kf=          0              gdsnoi=-1.23457e-029         
          using Hspice diodes            using ACM 
          acm=         3                 hdif=  3.2e-007 meter    
         ldif=         0 meter             js=    1e-005 amp/m^2  
          jsw=  5.2e-011 amp/m            xti=         0          
            n=         1                   cj=0.000767317 f/m^2    
           mj=  0.329933                   pb=  0.713124 V        
         cjsw=1.08867e-010 f/m             mjsw=  0.203671          
          php=  0.434706 V               pbsw (not used)           
       cjgate=  2.9e-010 f/m            cjswg (not used)           
        mjswg (not used)                 pbswg (not used)           
 
      
 **info** set option symb=1 internally to help for convergence.
 *****************************************************************
 ******  option summary
 ******
 runlvl  = 6         bypass  = 2         
  Opening plot unit= 79
 file=c:\for_hspice_code\project_file\hspice_on_vs_code\project\op amp\op_lowga

1****** HSPICE -- D-2010.03-SP2 32-BIT (Aug 26 2010) winnt ******               
 ******  
 c:\for_hspice_code\project_file\hspice_on_vs_code\cic018.l

  ******  operating point information tnom=  25.000 temp=  25.000 *****
 ***** operating point status is all       simulation time is     0.     
    node    =voltage      node    =voltage      node    =voltage

 +0:1       =   2.1982  0:ac_1    =   0.      0:vdd     =   3.3000 
 +0:vin1    =   2.0000  0:vin2    =   2.0000  0:vout    =   2.0000 
 +0:vss     =   0.      1:2       =   3.0242  1:3       = 915.7706m
 +1:4       = 915.7706m 1:5       =   2.0000 


 ****  voltage sources

 subckt                                                         
 element  0:vdd      0:vss      0:vin1     0:vin2     0:vac1    
  volts      3.3000     0.         2.0000     2.0000     0.     
  current  -48.3948u   51.4924u   -4.5976u    0.         0.     
  power    159.7028u    0.         9.1952u    0.         0.     

     total voltage source power dissipation=  168.8980u       watts



 ***** current sources

 subckt             
 element  0:ibias   
  volts      2.1982 
  current    1.5000u
  power     -3.2973u


     total current source power dissipation=  -3.2973u       watts

 **** resistors

 subckt   x1         x1        
 element  1:rz       1:rl      
  r value   13.0000k  400.0000k
  v drop     0.         2.0000 
  current    0.         5.0000u
  power      0.        10.0000u



 **** mosfets


 subckt   x1         x1         x1         x1         x1         x1        
 element  1:m1       1:m2       1:m3       1:m4       1:m5       1:m6      
 model    0:p_33.1   0:p_33.1   0:n_33.1   0:n_33.1   0:n_33.1   0:p_33.1  
 region     Saturati   Saturati   Saturati   Saturati   Saturati   Saturati
  id        -6.5593u   -6.5593u    6.5593u    6.5593u   33.3737u   -1.5000u
  ibs      8.470e-22  8.470e-22 -1.539e-21 -1.539e-21 -7.831e-21  1.804e-22
  ibd      850.8159a  850.8159a -251.8013a -251.8013a   -2.7496f  207.1052a
  vgs       -1.0242    -1.0242   915.7706m  915.7706m  915.7706m   -1.1018 
  vds       -2.1084    -2.1084   915.7706m  915.7706m    2.0000    -1.1018 
  vbs        0.         0.         0.         0.         0.         0.     
  vth     -795.0715m -795.0715m  751.3622m  751.3622m  750.9391m -786.0536m
  vdsat   -198.7211m -198.7211m  155.6127m  155.6127m  155.8837m -258.4063m
  vod     -229.0980m -229.0980m  164.4083m  164.4083m  164.8314m -315.7614m
  beta     273.9377u  273.9377u  482.2054u  482.2054u    2.4110m   36.4190u
  gam eff  664.3077m  664.3077m  761.1513m  761.1513m  761.1513m  664.3077m
  gm        48.2800u   48.2800u   62.1115u   62.1115u  314.5454u    8.6337u
  gds       57.0837n   57.0837n  138.9127n  138.9127n  458.9165n    6.3983n
  gmb       21.2704u   21.2704u   19.6433u   19.6433u   99.4384u    3.7976u
  cdtot      9.8460f    9.8460f    3.5347f    3.5347f   16.0701f    5.2067f
  cgtot     31.6960f   31.6960f   13.8255f   13.8255f   69.1160f   59.6461f
  cstot     45.5311f   45.5311f   16.4896f   16.4896f   82.4655f   75.6831f
  cbtot     31.4182f   31.4182f   10.2879f   10.2879f   49.8484f   34.5772f
  cgs       26.8757f   26.8757f   10.9496f   10.9496f   54.7357f   54.4154f
  cgd        2.6284f    2.6284f    1.1281f    1.1281f    5.6352f    1.4546f



 subckt   x1         x1        
 element  1:m7       1:m8      
 model    0:p_33.1   0:p_33.1  
 region       Linear   Saturati
  id       -13.1187u  -33.7761u
  ibs      1.578e-21  4.063e-21
  ibd      466.6230a    5.4980f
  vgs       -1.1018    -1.1018 
  vds     -275.8305m   -1.3000 
  vbs        0.         0.     
  vth     -786.0536m -786.0536m
  vdsat   -258.4063m -258.4063m
  vod     -315.7614m -315.7614m
  beta     327.7710u  819.4275u
  gam eff  664.3078m  664.3077m
  gm        72.0043u  194.4058u
  gds        5.9498u  121.3138n
  gmb       31.8274u   85.5125u
  cdtot    104.3566f  113.4473f
  cgtot    552.6818f    1.3419p
  cstot    679.1462f    1.7030p
  cbtot    324.7785f  774.4484f
  cgs      491.9139f    1.2242p
  cgd       33.1190f   32.6408f



 ******  
 c:\for_hspice_code\project_file\hspice_on_vs_code\cic018.l

  ******  ac analysis tnom=  25.000 temp=  25.000 *****
   avgpower=  1.6560E-04  from=  1.0000E-06     to=  3.9000E-05

          ***** job concluded
1****** HSPICE -- D-2010.03-SP2 32-BIT (Aug 26 2010) winnt ******               
 ******  
 c:\for_hspice_code\project_file\hspice_on_vs_code\cic018.l

  ******  job statistics summary tnom=  25.000 temp=  25.000 *****

  ******  HSPICE Threads Information  ******

  Command Line Threads Count                  :     1
  Available CPU Count                         :     8
  Actual Model Evaluation(Load) Threads Count :     1
  Actual Solver Threads Count                 :     1


  ******  Circuit Statistics  ******
  # nodes       =      28 # elements   =      20
  # resistors   =       2 # capacitors =       3 # inductors   =       1
  # mutual_inds =       0 # vccs       =       0 # vcvs        =       0
  # cccs        =       0 # ccvs       =       0 # volt_srcs   =       5
  # curr_srcs   =       1 # diodes     =       0 # bjts        =       0
  # jfets       =       0 # mosfets    =       8 # U elements  =       0
  # T elements  =       0 # W elements =       0 # B elements  =       0
  # S elements  =       0 # P elements =       0 # va device   =       0


  ******  Runtime Statistics (seconds)  ******

  analysis           time    # points   tot. iter  conv.iter
  op point           0.00           1          17
  ac analysis        0.16        9001        9001
  readin             0.13
  errchk             0.01
  setup              0.02
  output             0.00


           total memory used          473  kbytes
           total cpu time            0.37 seconds
           total elapsed time        0.40 seconds
           job started at     22:10:54 12/18/2022
           job ended   at     22:10:55 12/18/2022


1****** HSPICE -- D-2010.03-SP2 32-BIT (Aug 26 2010) winnt ******               
 ******  
 c:\for_hspice_code\project_file\hspice_on_vs_code\cic018.l

  ******  circuit name directory
 circuit number to circuit name directory
   number circuitname                     definition         multiplier
        0 main circuit
        1 x1.                             opamp              1.00 
  **warning** (c:\for_hspice_code\project_file\hspice_on_vs_code\project\op amp\op_lowgain_cm.sp:31) Capacitance of    1.000E+09 for x1.c1 is too high. Please verify capacitance value.
  **warning** (c:\for_hspice_code\project_file\hspice_on_vs_code\project\op amp\op_lowgain_cm.sp:31) Inductance for the inductor x1.l1 >= 0.1 henry, please verify it.
 ***************************************************************************
 ***        model parameters  model name:   0:p_33.1   model type:pmos   ***
 ***************************************************************************

   *** general parameters ***
    deriv=   0.           

   ***  level 49  model parameters  ***

       hspver=    2006.03               level=         49         
      version=        3.2            paramchk=          0         
       apwarn=          1                lite=          0         
       vgslim=          0             binUnit=          1         
       capMod=          2               xpart=          1         
       mobMod=          1              nqsMod=          0         
       stiMod=          0                 elm=          5         
     sfvtflag=          0                 tox=     7e-009 meter   
           xj=   1.8e-007 meter       binflag=          0         
         lmin=   3.5e-007 meter          lmax=     5e-005 meter   
         wmin=   2.5e-007 meter          wmax=     0.0001 meter   
         lref=          0 meter          wref=          0 meter   
         lint=1.39563e-008 meter          wint=4.36131e-008 meter   
        lmult=          1               wmult=          1         
           ll=3.34369e-018                 lln=    1.47874         
           lw=          0                 lwn=          1         
          lwl=-1.43441e-024                  wl=          0         
          wln=          1                  ww=-7.27358e-019         
          wwn=     1.6333                 wwl=9.74709e-026         
          dwg=-1.43712e-008 m/V             dwb=5.98392e-009 m/V^1/2 
           xl=    -1e-008                  xw=          0         
           a0=    1.07362                 ags=   0.213843 V^-1    
           b0=4.35813e-007 meter            b1=1.73788e-006 meter   
         keta= -0.0103469 V^-1           voff=  -0.223905 V       
        ngate=          0 cm^-3           vbx=          0 V       
          vbm=         -3 V                xt=  1.55e-007 meter   
         vth0=  -0.740436 V               nch=4.30962e+017 cm^-3   
         nsub=     6e+016 cm^-3           nlx=          0 meter   
       gamma1=          0 V^-1/2       gamma2=          0 V^-1/2  
           k1=   0.766742 V^1/2            k2=  0.0542866         
           k3=    2.08926                 k3b=    1.00284 V^-1    
           w0=2.22473e-007 meter          dvt0=    7.39473         
         dvt1=   0.963488                dvt2= 0.00780533 V^-1    
        dvt0w=    1.79697 meter^-1      dvt1w=2.87627e+006 meter^-1
        dvt2w=   0.202624 V^-1           dsub=   0.459428         
         eta0=  0.0542106                etab= -0.0189318 V^-1    
           u0= 0.00807585 m^2/V/sec         ua=-3.97828e-010 m/V     
           ub=1.69475e-018 (m/V)^2          uc=-3.64947e-011 V^-1    
         vsat=     100077 m/sec            a1=       0.01 v^-1    
           a2=   0.921225               delta=       0.01 V       
         rdsw=    627.019 ohm-um         prwg=  0.0334903 V^-1    
         prwb=  -0.772525 V^-1/2           wr=   0.991323         
         pclm=    0.61644             pdiblc1=  0.0122361         
      pdiblc2= 0.00035434             pdiblcb=   0.247788 V^-1    
       pscbe1=4.64276e+008 V/m          pscbe2=  2.87e-005 V/m     
        drout=   0.240141                pvag=    -0.2307         
      nfactor=   0.996415                cdsc= 0.00326567 f/m^2   
        cdscb= 0.00246304 f/V/m^2       cdscd=          0 f/V/m^2 
          cit=0.000533367 f/m^2        alpha0=          0 m/V     
        beta0=         30 V               dlc=1.39563e-008 meter   
          dwc=4.36131e-008 meter           clc=     1e-007 meter   
          cle=        0.6                cgso=   2.6e-010 f/m     
         cgdo=   2.6e-010 f/m            cgbo=     1e-010 f/m     
         cgsl=          0 f/m            cgdl=          0 f/m     
       ckappa=        0.6                  cf= 1.392e-010 f/m     
         acde=          1 m/V            moin=         15 V^1/2   
         toxm=     7e-009 m            dtoxcv=          0 m       
          vfb (not used)                alpha1=          0 1/V     
         ijth=          0 A              noff=          1         
       voffcv=          0                 tcj=          0 1/K     
        tcjsw=          0 1/K          tcjswg=          0 1/K     
          tpb=          0 V/K           tpbsw=          0 V/K     
       tpbswg=          0 V/K             llc=3.34369e-018         
          lwc=          0                lwlc=-1.43441e-024         
          wlc=          0                 wwc=-7.27358e-019         
         wwlc=9.74709e-026                tnom=     300.15 K       
          kt1=  -0.334587 V              kt1l=     1e-008         
          kt2= -0.0574752                 ute=   -1.22772         
          ua1=1.4019e-009 m/V             ub1=-3.4172e-018 (m/V)^2 
          uc1=-1.3931e-010 m/V^2            at=      49500 m/s     
          prt=          0         
          using Berkeley noise model       noiMod=          1         
         noia=   9.9e+018                noib=       2400         
         noic=   1.4e-012                  em=   4.1e+007         
           ef=          1                  af=          1         
           kf=          0              gdsnoi=-1.23457e-029         
          using Hspice diodes            using ACM 
          acm=         3                 hdif=  3.2e-007 meter    
         ldif=         0 meter             js=    9e-005 amp/m^2  
          jsw=  4.9e-012 amp/m            xti=         0          
            n=         1                   cj=0.00129981 f/m^2    
           mj=  0.409694                   pb=  0.761753 V        
         cjsw=2.24324e-010 f/m             mjsw=  0.474468          
          php=  0.929663 V               pbsw (not used)           
       cjgate=2.24324e-010 f/m            cjswg (not used)           
        mjswg (not used)                 pbswg (not used)           
 ***************************************************************************
 ***        model parameters  model name:   0:n_33.1   model type:nmos   ***
 ***************************************************************************

   *** general parameters ***
    deriv=   0.           

   ***  level 49  model parameters  ***

       hspver=    2006.03               level=         49         
      version=        3.2            paramchk=          0         
       apwarn=          1                lite=          0         
       vgslim=          0             binUnit=          2         
       capMod=          2               xpart=          1         
       mobMod=          1              nqsMod=          0         
       stiMod=          0                 elm=          5         
     sfvtflag=          0                 tox=     7e-009 meter   
           xj=   2.5e-007 meter       binflag=          0         
         lmin=   3.5e-007 meter          lmax=     5e-005 meter   
         wmin=   2.5e-007 meter          wmax=     0.0001 meter   
         lref=          0 meter          wref=          0 meter   
         lint=   9.2e-009 meter          wint=    -2e-009 meter   
        lmult=          1               wmult=          1         
           ll=1.21422e-014                 lln=          1         
           lw=          0                 lwn=          1         
          lwl=-2.88567e-022                  wl=          0         
          wln=          1                  ww=-2.00971e-016         
          wwn=          1                 wwl=-1.50178e-021         
          dwg=3.55271e-015 m/V             dwb=   6.2e-009 m/V^1/2 
           xl=   2.2e-008                  xw=          0         
           a0=    1.27527                 ags=   0.267851 V^-1    
           b0=     1e-008 meter            b1=     9e-007 meter   
         keta=      0.005 V^-1           voff=  -0.236086 V       
        ngate=          0 cm^-3           vbx=          0 V       
          vbm=         -3 V                xt=  1.55e-007 meter   
         vth0=   0.562407 V               nch=   1.7e+017 cm^-3   
         nsub=     6e+016 cm^-3           nlx=1.25083e-007 meter   
       gamma1=          0 V^-1/2       gamma2=          0 V^-1/2  
           k1=   0.713754 V^1/2            k2= -0.0258269         
           k3=         62                 k3b=         32 V^-1    
           w0=  5.68e-006 meter          dvt0=     4.7502         
         dvt1=    0.63402                dvt2=  -0.213923 V^-1    
        dvt0w=       0.25 meter^-1      dvt1w=     595000 meter^-1
        dvt2w=          0 V^-1           dsub=      0.521         
         eta0=   0.208078                etab=    -0.0015 V^-1    
           u0=  0.0341296 m^2/V/sec         ua=-5.85469e-010 m/V     
           ub=1.65189e-018 (m/V)^2          uc=5.51773e-011 V^-1    
         vsat=      98280 m/sec            a1=       0.01 v^-1    
           a2=       0.99               delta=       0.01 V       
         rdsw=    595.911 ohm-um         prwg=  0.0230686 V^-1    
         prwb=  0.0571548 V^-1/2           wr=          1         
         pclm=     0.6318             pdiblc1= 0.00094999         
      pdiblc2=      0.001             pdiblcb=          0 V^-1    
       pscbe1=  4.24e+008 V/m          pscbe2=     1e-005 V/m     
        drout=       0.56                pvag=          0         
      nfactor=          1                cdsc=    0.00024 f/m^2   
        cdscb=          0 f/V/m^2       cdscd=    0.00024 f/V/m^2 
          cit=          0 f/m^2        alpha0=          0 m/V     
        beta0=         30 V               dlc=   9.2e-009 meter   
          dwc=    -2e-009 meter           clc=     1e-007 meter   
          cle=        0.6                cgso=   2.7e-010 f/m     
         cgdo=   2.7e-010 f/m            cgbo=     1e-010 f/m     
         cgsl=          0 f/m            cgdl=          0 f/m     
       ckappa=        0.6                  cf= 1.392e-010 f/m     
         acde=          1 m/V            moin=         15 V^1/2   
         toxm=     7e-009 m            dtoxcv=          0 m       
          vfb (not used)                alpha1=          0 1/V     
         ijth=          0 A              noff=          1         
       voffcv=          0                 tcj=          0 1/K     
        tcjsw=          0 1/K          tcjswg=          0 1/K     
          tpb=          0 V/K           tpbsw=          0 V/K     
       tpbswg=          0 V/K             llc=1.21422e-014         
          lwc=          0                lwlc=-2.88567e-022         
          wlc=          0                 wwc=-2.00971e-016         
         wwlc=-1.50178e-021                tnom=     300.15 K       
          kt1=  -0.316608 V              kt1l=          0         
          kt2= -0.0446082                 ute=   -1.60061         
          ua1=4.20288e-011 m/V             ub1=   3.8e-019 (m/V)^2 
          uc1=   2.8e-011 m/V^2            at=        500 m/s     
          prt=   -271.264         
          using Berkeley noise model       noiMod=          1         
         noia=     1e+020                noib=      50000         
         noic=  -1.4e-012                  em=   4.1e+007         
           ef=          1                  af=          1         
           kf=          0              gdsnoi=-1.23457e-029         
          using Hspice diodes            using ACM 
          acm=         3                 hdif=  3.2e-007 meter    
         ldif=         0 meter             js=    1e-005 amp/m^2  
          jsw=  5.2e-011 amp/m            xti=         0          
            n=         1                   cj=0.000767317 f/m^2    
           mj=  0.329933                   pb=  0.713124 V        
         cjsw=1.08867e-010 f/m             mjsw=  0.203671          
          php=  0.434706 V               pbsw (not used)           
       cjgate=  2.9e-010 f/m            cjswg (not used)           
        mjswg (not used)                 pbswg (not used)           
 
      
 **info** set option symb=1 internally to help for convergence.
 *****************************************************************
 ******  option summary
 ******
 runlvl  = 6         bypass  = 2         
  Opening plot unit= 79
 file=c:\for_hspice_code\project_file\hspice_on_vs_code\project\op amp\op_lowga

1****** HSPICE -- D-2010.03-SP2 32-BIT (Aug 26 2010) winnt ******               
 ******  
 c:\for_hspice_code\project_file\hspice_on_vs_code\cic018.l

  ******  operating point information tnom=  25.000 temp=  25.000 *****
 ***** operating point status is all       simulation time is     0.     
    node    =voltage      node    =voltage      node    =voltage

 +0:1       =   2.2517  0:ac_1    =   0.      0:vdd     =   3.3000 
 +0:vin1    =   2.0000  0:vin2    =   2.0000  0:vout    =   2.0000 
 +0:vss     =   0.      1:2       =   2.9693  1:3       = 811.4421m
 +1:4       = 811.4421m 1:5       =   2.0000 


 ****  voltage sources

 subckt                                                         
 element  0:vdd      0:vss      0:vin1     0:vin2     0:vac1    
  volts      3.3000     0.         2.0000     2.0000     0.     
  current  -48.6163u   52.3568u   -5.2405u    0.         0.     
  power    160.4338u    0.        10.4810u    0.         0.     

     total voltage source power dissipation=  170.9148u       watts



 ***** current sources

 subckt             
 element  0:ibias   
  volts      2.2517 
  current    1.5000u
  power     -3.3775u


     total current source power dissipation=  -3.3775u       watts

 **** resistors

 subckt   x1         x1        
 element  1:rz       1:rl      
  r value   13.0000k  400.0000k
  v drop     0.         2.0000 
  current    0.         5.0000u
  power      0.        10.0000u



 **** mosfets


 subckt   x1         x1         x1         x1         x1         x1        
 element  1:m1       1:m2       1:m3       1:m4       1:m5       1:m6      
 model    0:p_33.1   0:p_33.1   0:n_33.1   0:n_33.1   0:n_33.1   0:p_33.1  
 region     Saturati   Saturati   Saturati   Saturati   Saturati   Saturati
  id        -6.6664u   -6.6664u    6.6664u    6.6664u   34.0239u   -1.5000u
  ibs      8.608e-22  8.608e-22 -1.564e-21 -1.564e-21 -7.983e-21  1.804e-22
  ibd      870.7749a  870.7749a -223.1148a -223.1148a   -2.7496f  197.0468a
  vgs     -969.3011m -969.3011m  811.4421m  811.4421m  811.4421m   -1.0483 
  vds       -2.1579    -2.1579   811.4421m  811.4421m    2.0000    -1.0483 
  vbs        0.         0.         0.         0.         0.         0.     
  vth     -753.8369m -753.8369m  658.9229m  658.9229m  658.4339m -745.7959m
  vdsat   -189.6370m -189.6370m  148.0384m  148.0384m  148.3484m -249.0562m
  vod     -215.4642m -215.4642m  152.5192m  152.5192m  153.0082m -302.5075m
  beta     309.2826u  309.2826u  552.2605u  552.2605u    2.7613m   39.4330u
  gam eff  664.3077m  664.3077m  761.1513m  761.1513m  761.1513m  664.3077m
  gm        51.4165u   51.4165u   66.3340u   66.3340u  336.7438u    8.9598u
  gds       56.7319n   56.7319n  161.1309n  161.1309n  493.2890n    6.6360n
  gmb       22.7588u   22.7588u   21.1616u   21.1616u  107.3790u    3.9574u
  cdtot     10.1044f   10.1044f    3.6884f    3.6884f   16.6041f    5.3736f
  cgtot     35.0923f   35.0923f   14.5797f   14.5797f   72.8829f   64.3891f
  cstot     49.1319f   49.1319f   17.1920f   17.1920f   85.9856f   81.2928f
  cbtot     32.5666f   32.5666f   10.5553f   10.5553f   50.9555f   36.6723f
  cgs       29.7978f   29.7978f   11.5392f   11.5392f   57.6804f   58.7257f
  cgd        2.9394f    2.9394f    1.2350f    1.2350f    6.1678f    1.5730f



 subckt   x1         x1        
 element  1:m7       1:m8      
 model    0:p_33.1   0:p_33.1  
 region     Saturati   Saturati
  id       -13.3329u  -33.7834u
  ibs      1.604e-21  4.064e-21
  ibd      559.4442a    5.4980f
  vgs       -1.0483    -1.0483 
  vds     -330.6989m   -1.3000 
  vbs        0.         0.     
  vth     -745.7959m -745.7959m
  vdsat   -249.0562m -249.0562m
  vod     -302.5075m -302.5075m
  beta     354.8971u  887.2426u
  gam eff  664.3077m  664.3077m
  gm        78.6070u  201.7916u
  gds        1.6972u  119.6238n
  gmb       34.7608u   89.1283u
  cdtot     77.0074f  116.0762f
  cgtot    587.1943f    1.4485p
  cstot    729.7458f    1.8292p
  cbtot    340.1192f  820.5362f
  cgs      530.7173f    1.3212p
  cgd       22.7557f   35.2676f



 ******  
 c:\for_hspice_code\project_file\hspice_on_vs_code\cic018.l

  ******  ac analysis tnom=  25.000 temp=  25.000 *****
   avgpower=  1.6754E-04  from=  1.0000E-06     to=  3.9000E-05

          ***** job concluded
1****** HSPICE -- D-2010.03-SP2 32-BIT (Aug 26 2010) winnt ******               
 ******  
 c:\for_hspice_code\project_file\hspice_on_vs_code\cic018.l

  ******  job statistics summary tnom=  25.000 temp=  25.000 *****

  ******  HSPICE Threads Information  ******

  Command Line Threads Count                  :     1
  Available CPU Count                         :     8
  Actual Model Evaluation(Load) Threads Count :     1
  Actual Solver Threads Count                 :     1


  ******  Circuit Statistics  ******
  # nodes       =      28 # elements   =      20
  # resistors   =       2 # capacitors =       3 # inductors   =       1
  # mutual_inds =       0 # vccs       =       0 # vcvs        =       0
  # cccs        =       0 # ccvs       =       0 # volt_srcs   =       5
  # curr_srcs   =       1 # diodes     =       0 # bjts        =       0
  # jfets       =       0 # mosfets    =       8 # U elements  =       0
  # T elements  =       0 # W elements =       0 # B elements  =       0
  # S elements  =       0 # P elements =       0 # va device   =       0


  ******  Runtime Statistics (seconds)  ******

  analysis           time    # points   tot. iter  conv.iter
  op point           0.01           1          17
  ac analysis        0.13        9001        9001
  readin             0.14
  errchk             0.01
  setup              0.03
  output             0.00


           total memory used          473  kbytes
           total cpu time            0.36 seconds
           total elapsed time        0.41 seconds
           job started at     22:10:54 12/18/2022
           job ended   at     22:10:56 12/18/2022


1****** HSPICE -- D-2010.03-SP2 32-BIT (Aug 26 2010) winnt ******               
 ******  
 c:\for_hspice_code\project_file\hspice_on_vs_code\cic018.l

  ******  circuit name directory
 circuit number to circuit name directory
   number circuitname                     definition         multiplier
        0 main circuit
        1 x1.                             opamp              1.00 
  **warning** (c:\for_hspice_code\project_file\hspice_on_vs_code\project\op amp\op_lowgain_cm.sp:31) Capacitance of    1.000E+09 for x1.c1 is too high. Please verify capacitance value.
  **warning** (c:\for_hspice_code\project_file\hspice_on_vs_code\project\op amp\op_lowgain_cm.sp:31) Inductance for the inductor x1.l1 >= 0.1 henry, please verify it.
 ***************************************************************************
 ***        model parameters  model name:   0:p_33.1   model type:pmos   ***
 ***************************************************************************

   *** general parameters ***
    deriv=   0.           

   ***  level 49  model parameters  ***

       hspver=    2006.03               level=         49         
      version=        3.2            paramchk=          0         
       apwarn=          1                lite=          0         
       vgslim=          0             binUnit=          1         
       capMod=          2               xpart=          1         
       mobMod=          1              nqsMod=          0         
       stiMod=          0                 elm=          5         
     sfvtflag=          0                 tox=     7e-009 meter   
           xj=   1.8e-007 meter       binflag=          0         
         lmin=   3.5e-007 meter          lmax=     5e-005 meter   
         wmin=   2.5e-007 meter          wmax=     0.0001 meter   
         lref=          0 meter          wref=          0 meter   
         lint=2.98463e-008 meter          wint=2.86131e-008 meter   
        lmult=          1               wmult=          1         
           ll=3.34369e-018                 lln=    1.47874         
           lw=          0                 lwn=          1         
          lwl=-1.43441e-024                  wl=          0         
          wln=          1                  ww=-7.27358e-019         
          wwn=     1.6333                 wwl=9.74709e-026         
          dwg=-1.43712e-008 m/V             dwb=5.98392e-009 m/V^1/2 
[...]
  # jfets       =       0 # mosfets    =       8 # U elements  =       0
  # T elements  =       0 # W elements =       0 # B elements  =       0
  # S elements  =       0 # P elements =       0 # va device   =       0


  ******  Runtime Statistics (seconds)  ******

  analysis           time    # points   tot. iter  conv.iter
  op point           0.01           1          17
  ac analysis        0.11        9001        9001
  readin             0.12
  errchk             0.01
  setup              0.02
  output             0.00


           total memory used          476  kbytes
           total cpu time            0.29 seconds
           total elapsed time        0.32 seconds
           job started at     22:10:54 12/18/2022
           job ended   at     22:10:57 12/18/2022


1****** HSPICE -- D-2010.03-SP2 32-BIT (Aug 26 2010) winnt ******               
 ******  
 c:\for_hspice_code\project_file\hspice_on_vs_code\cic018.l

  ******  circuit name directory
 circuit number to circuit name directory
   number circuitname                     definition         multiplier
        0 main circuit
        1 x1.                             opamp              1.00 
  **warning** (c:\for_hspice_code\project_file\hspice_on_vs_code\project\op amp\op_lowgain_cm.sp:31) Capacitance of    1.000E+09 for x1.c1 is too high. Please verify capacitance value.
  **warning** (c:\for_hspice_code\project_file\hspice_on_vs_code\project\op amp\op_lowgain_cm.sp:31) Inductance for the inductor x1.l1 >= 0.1 henry, please verify it.
 ***************************************************************************
 ***        model parameters  model name:   0:p_33.1   model type:pmos   ***
 ***************************************************************************

   *** general parameters ***
    deriv=   0.           

   ***  level 49  model parameters  ***

       hspver=    2006.03               level=         49         
      version=        3.2            paramchk=          0         
       apwarn=          1                lite=          0         
       vgslim=          0             binUnit=          1         
       capMod=          2               xpart=          1         
       mobMod=          1              nqsMod=          0         
       stiMod=          0                 elm=          5         
     sfvtflag=          0                 tox=     7e-009 meter   
           xj=   1.8e-007 meter       binflag=          0         
         lmin=   3.5e-007 meter          lmax=     5e-005 meter   
         wmin=   2.5e-007 meter          wmax=     0.0001 meter   
         lref=          0 meter          wref=          0 meter   
         lint=2.98463e-008 meter          wint=2.86131e-008 meter   
        lmult=          1               wmult=          1         
           ll=3.34369e-018                 lln=    1.47874         
           lw=          0                 lwn=          1         
          lwl=-1.43441e-024                  wl=          0         
          wln=          1                  ww=-7.27358e-019         
          wwn=     1.6333                 wwl=9.74709e-026         
          dwg=-1.43712e-008 m/V             dwb=5.98392e-009 m/V^1/2 
           xl=    -1e-008                  xw=          0         
           a0=    1.07362                 ags=   0.213843 V^-1    
           b0=4.35813e-007 meter            b1=1.73788e-006 meter   
         keta= -0.0103469 V^-1           voff=  -0.223905 V       
        ngate=          0 cm^-3           vbx=          0 V       
          vbm=         -3 V                xt=  1.55e-007 meter   
         vth0=  -0.690435 V               nch=4.30962e+017 cm^-3   
         nsub=     6e+016 cm^-3           nlx=          0 meter   
       gamma1=          0 V^-1/2       gamma2=          0 V^-1/2  
           k1=   0.766742 V^1/2            k2=  0.0542866         
           k3=    2.08926                 k3b=    1.00284 V^-1    
           w0=2.22473e-007 meter          dvt0=    7.39473         
         dvt1=   0.963488                dvt2= 0.00780533 V^-1    
        dvt0w=    1.79697 meter^-1      dvt1w=2.87627e+006 meter^-1
        dvt2w=   0.202624 V^-1           dsub=   0.459428         
         eta0=  0.0542106                etab= -0.0189318 V^-1    
           u0= 0.00807585 m^2/V/sec         ua=-3.97828e-010 m/V     
           ub=1.69475e-018 (m/V)^2          uc=-3.64947e-011 V^-1    
         vsat=     100077 m/sec            a1=       0.01 v^-1    
           a2=   0.921225               delta=       0.01 V       
         rdsw=    627.019 ohm-um         prwg=  0.0334903 V^-1    
         prwb=  -0.772525 V^-1/2           wr=   0.991323         
         pclm=    0.61644             pdiblc1=  0.0122361         
      pdiblc2= 0.00035434             pdiblcb=   0.247788 V^-1    
       pscbe1=4.64276e+008 V/m          pscbe2=  2.87e-005 V/m     
        drout=   0.240141                pvag=    -0.2307         
      nfactor=   0.996415                cdsc= 0.00326567 f/m^2   
        cdscb= 0.00246304 f/V/m^2       cdscd=          0 f/V/m^2 
          cit=0.000533367 f/m^2        alpha0=          0 m/V     
        beta0=         30 V               dlc=2.98463e-008 meter   
          dwc=2.86131e-008 meter           clc=     1e-007 meter   
          cle=        0.6                cgso=   2.6e-010 f/m     
         cgdo=   2.6e-010 f/m            cgbo=     1e-010 f/m     
         cgsl=          0 f/m            cgdl=          0 f/m     
       ckappa=        0.6                  cf= 1.392e-010 f/m     
         acde=          1 m/V            moin=         15 V^1/2   
         toxm=     7e-009 m            dtoxcv=          0 m       
          vfb (not used)                alpha1=          0 1/V     
         ijth=          0 A              noff=          1         
       voffcv=          0                 tcj=          0 1/K     
        tcjsw=          0 1/K          tcjswg=          0 1/K     
          tpb=          0 V/K           tpbsw=          0 V/K     
       tpbswg=          0 V/K             llc=3.34369e-018         
          lwc=          0                lwlc=-1.43441e-024         
          wlc=          0                 wwc=-7.27358e-019         
         wwlc=9.74709e-026                tnom=     300.15 K       
          kt1=  -0.334587 V              kt1l=     1e-008         
          kt2= -0.0574752                 ute=   -1.22772         
          ua1=1.4019e-009 m/V             ub1=-3.4172e-018 (m/V)^2 
          uc1=-1.3931e-010 m/V^2            at=      49500 m/s     
          prt=          0         
          using Berkeley noise model       noiMod=          1         
         noia=   9.9e+018                noib=       2400         
         noic=   1.4e-012                  em=   4.1e+007         
           ef=          1                  af=          1         
           kf=          0              gdsnoi=-1.23457e-029         
          using Hspice diodes            using ACM 
          acm=         3                 hdif=  3.2e-007 meter    
         ldif=         0 meter             js=    9e-005 amp/m^2  
          jsw=  4.9e-012 amp/m            xti=         0          
            n=         1                   cj=0.00129981 f/m^2    
           mj=  0.409694                   pb=  0.761753 V        
         cjsw=2.24324e-010 f/m             mjsw=  0.474468          
          php=  0.929663 V               pbsw (not used)           
       cjgate=2.24324e-010 f/m            cjswg (not used)           
        mjswg (not used)                 pbswg (not used)           
 ***************************************************************************
 ***        model parameters  model name:   0:n_33.1   model type:nmos   ***
 ***************************************************************************

   *** general parameters ***
    deriv=   0.           

   ***  level 49  model parameters  ***

       hspver=    2006.03               level=         49         
      version=        3.2            paramchk=          0         
       apwarn=          1                lite=          0         
       vgslim=          0             binUnit=          2         
       capMod=          2               xpart=          1         
       mobMod=          1              nqsMod=          0         
       stiMod=          0                 elm=          5         
     sfvtflag=          0                 tox=     7e-009 meter   
           xj=   2.5e-007 meter       binflag=          0         
         lmin=   3.5e-007 meter          lmax=     5e-005 meter   
         wmin=   2.5e-007 meter          wmax=     0.0001 meter   
         lref=          0 meter          wref=          0 meter   
         lint=    -8e-009 meter          wint=     7e-009 meter   
        lmult=          1               wmult=          1         
           ll=1.21422e-014                 lln=          1         
           lw=          0                 lwn=          1         
          lwl=-2.88567e-022                  wl=          0         
          wln=          1                  ww=-2.00971e-016         
          wwn=          1                 wwl=-1.50178e-021         
          dwg=3.55271e-015 m/V             dwb=   6.2e-009 m/V^1/2 
           xl=   2.2e-008                  xw=          0         
           a0=    1.27527                 ags=   0.267851 V^-1    
           b0=     1e-008 meter            b1=     9e-007 meter   
         keta=      0.005 V^-1           voff=  -0.236086 V       
        ngate=          0 cm^-3           vbx=          0 V       
          vbm=         -3 V                xt=  1.55e-007 meter   
         vth0=    0.63797 V               nch=   1.7e+017 cm^-3   
         nsub=     6e+016 cm^-3           nlx=1.25083e-007 meter   
       gamma1=          0 V^-1/2       gamma2=          0 V^-1/2  
           k1=   0.713754 V^1/2            k2= -0.0258269         
           k3=         62                 k3b=         32 V^-1    
           w0=  5.68e-006 meter          dvt0=     4.7502         
         dvt1=    0.63402                dvt2=  -0.213923 V^-1    
        dvt0w=       0.25 meter^-1      dvt1w=     595000 meter^-1
        dvt2w=          0 V^-1           dsub=      0.521         
         eta0=   0.208078                etab=    -0.0015 V^-1    
           u0=  0.0341296 m^2/V/sec         ua=-5.85469e-010 m/V     
           ub=1.65189e-018 (m/V)^2          uc=5.51773e-011 V^-1    
         vsat=      98280 m/sec            a1=       0.01 v^-1    
           a2=       0.99               delta=       0.01 V       
         rdsw=    595.911 ohm-um         prwg=  0.0230686 V^-1    
         prwb=  0.0571548 V^-1/2           wr=          1         
         pclm=     0.6318             pdiblc1= 0.00094999         
      pdiblc2=      0.001             pdiblcb=          0 V^-1    
       pscbe1=  4.24e+008 V/m          pscbe2=     1e-005 V/m     
        drout=       0.56                pvag=          0         
      nfactor=          1                cdsc=    0.00024 f/m^2   
        cdscb=          0 f/V/m^2       cdscd=    0.00024 f/V/m^2 
          cit=          0 f/m^2        alpha0=          0 m/V     
        beta0=         30 V               dlc=    -8e-009 meter   
          dwc=     7e-009 meter           clc=     1e-007 meter   
          cle=        0.6                cgso=   2.7e-010 f/m     
         cgdo=   2.7e-010 f/m            cgbo=     1e-010 f/m     
         cgsl=          0 f/m            cgdl=          0 f/m     
       ckappa=        0.6                  cf= 1.392e-010 f/m     
         acde=          1 m/V            moin=         15 V^1/2   
         toxm=     7e-009 m            dtoxcv=          0 m       
          vfb (not used)                alpha1=          0 1/V     
         ijth=          0 A              noff=          1         
       voffcv=          0                 tcj=          0 1/K     
        tcjsw=          0 1/K          tcjswg=          0 1/K     
          tpb=          0 V/K           tpbsw=          0 V/K     
       tpbswg=          0 V/K             llc=1.21422e-014         
          lwc=          0                lwlc=-2.88567e-022         
          wlc=          0                 wwc=-2.00971e-016         
         wwlc=-1.50178e-021                tnom=     300.15 K       
          kt1=  -0.316608 V              kt1l=          0         
          kt2= -0.0446082                 ute=   -1.60061         
          ua1=4.20288e-011 m/V             ub1=   3.8e-019 (m/V)^2 
          uc1=   2.8e-011 m/V^2            at=        500 m/s     
          prt=   -271.264         
          using Berkeley noise model       noiMod=          1         
         noia=     1e+020                noib=      50000         
         noic=  -1.4e-012                  em=   4.1e+007         
           ef=          1                  af=          1         
           kf=          0              gdsnoi=-1.23457e-029         
          using Hspice diodes            using ACM 
          acm=         3                 hdif=  3.2e-007 meter    
         ldif=         0 meter             js=    1e-005 amp/m^2  
          jsw=  5.2e-011 amp/m            xti=         0          
            n=         1                   cj=0.000767317 f/m^2    
           mj=  0.329933                   pb=  0.713124 V        
         cjsw=1.08867e-010 f/m             mjsw=  0.203671          
          php=  0.434706 V               pbsw (not used)           
       cjgate=  2.9e-010 f/m            cjswg (not used)           
        mjswg (not used)                 pbswg (not used)           
 
      
 **info** set option symb=1 internally to help for convergence.
 *****************************************************************
 ******  option summary
 ******
 runlvl  = 6         bypass  = 2         
  Opening plot unit= 79
 file=c:\for_hspice_code\project_file\hspice_on_vs_code\project\op amp\op_lowga

1****** HSPICE -- D-2010.03-SP2 32-BIT (Aug 26 2010) winnt ******               
 ******  
 c:\for_hspice_code\project_file\hspice_on_vs_code\cic018.l

  ******  operating point information tnom=  25.000 temp=  25.000 *****
 ***** operating point status is all       simulation time is     0.     
    node    =voltage      node    =voltage      node    =voltage

 +0:1       =   2.3054  0:ac_1    =   0.      0:vdd     =   3.3000 
 +0:vin1    =   2.0000  0:vin2    =   2.0000  0:vout    =   2.0000 
 +0:vss     =   0.      1:2       =   2.9103  1:3       = 892.1707m
 +1:4       = 892.1707m 1:5       =   2.0000 


 ****  voltage sources

 subckt                                                         
 element  0:vdd      0:vss      0:vin2     0:vac1     0:vin1    
  volts      3.3000     0.         2.0000     0.         2.0000 
  current  -48.6932u   52.4909u    0.         0.        -5.2977u
  power    160.6876u    0.         0.         0.        10.5954u

     total voltage source power dissipation=  171.2830u       watts



 ***** current sources

 subckt             
 element  0:ibias   
  volts      2.3054 
  current    1.5000u
  power     -3.4581u


     total current source power dissipation=  -3.4581u       watts

 **** resistors

 subckt   x1         x1        
 element  1:rz       1:rl      
  r value   13.0000k  400.0000k
  v drop     0.         2.0000 
  current    0.         5.0000u
  power      0.        10.0000u



 **** mosfets


 subckt   x1         x1         x1         x1         x1         x1        
 element  1:m1       1:m2       1:m3       1:m4       1:m5       1:m6      
 model    0:p_33.1   0:p_33.1   0:n_33.1   0:n_33.1   0:n_33.1   0:p_33.1  
 region     Saturati   Saturati   Saturati   Saturati   Saturati   Saturati
  id        -6.7006u   -6.7006u    6.7006u    6.7006u   34.0896u   -1.5000u
  ibs      8.653e-22  8.653e-22 -1.572e-21 -1.572e-21 -7.999e-21  1.804e-22
  ibd      814.3839a  814.3839a -245.3122a -245.3122a   -2.7496f  186.9551a
  vgs     -910.2879m -910.2879m  892.1707m  892.1707m  892.1707m -994.6147m
  vds       -2.0181    -2.0181   892.1707m  892.1707m    2.0000  -994.6147m
  vbs        0.         0.         0.         0.         0.         0.     
  vth     -703.5183m -703.5183m  733.4345m  733.4345m  733.0685m -695.7731m
  vdsat   -184.1840m -184.1840m  151.8575m  151.8575m  152.0912m -246.5332m
  vod     -206.7696m -206.7696m  158.7362m  158.7362m  159.1022m -298.8416m
  beta     332.2806u  332.2806u  522.2276u  522.2276u    2.6112m   40.3204u
  gam eff  664.3077m  664.3077m  761.1513m  761.1513m  761.1513m  664.3077m
  gm        53.1746u   53.1746u   65.0569u   65.0569u  329.4416u    9.0613u
  gds       62.8518n   62.8518n  139.7551n  139.7551n  455.5422n    7.0967n
  gmb       23.5304u   23.5304u   20.7704u   20.7704u  105.1399u    3.9943u
  cdtot     10.3520f   10.3520f    3.6297f    3.6297f   16.4937f    5.4381f
  cgtot     35.2169f   35.2169f   14.7415f   14.7415f   73.6941f   64.4051f
  cstot     49.1440f   49.1440f   17.4062f   17.4062f   87.0500f   81.2692f
  cbtot     32.6834f   32.6834f   10.6034f   10.6034f   51.3752f   36.7265f
  cgs       29.8383f   29.8383f   11.6992f   11.6992f   58.4822f   58.7138f
  cgd        3.0349f    3.0349f    1.2132f    1.2132f    6.0602f    1.5869f



 subckt   x1         x1        
 element  1:m7       1:m8      
 model    0:p_33.1   0:p_33.1  
 region     Saturati   Saturati
  id       -13.4012u  -33.7919u
  ibs      1.612e-21  4.065e-21
  ibd      659.2773a    5.4980f
  vgs     -994.6147m -994.6147m
  vds     -389.7121m   -1.3000 
  vbs        0.         0.     
  vth     -695.7731m -695.7731m
  vdsat   -246.5332m -246.5332m
  vod     -298.8416m -298.8416m
  beta     362.8833u  907.2082u
  gam eff  664.3077m  664.3077m
  gm        80.5711u  204.1294u
  gds      666.3651n  120.4476n
  gmb       35.5296u   89.9841u
  cdtot     65.2724f  116.3406f
  cgtot    583.6226f    1.4488p
  cstot    730.1100f    1.8288p
  cbtot    338.2595f  820.6543f
  cgs      529.9638f    1.3208p
  cgd       18.3197f   35.5349f



 ******  
 c:\for_hspice_code\project_file\hspice_on_vs_code\cic018.l

  ******  ac analysis tnom=  25.000 temp=  25.000 *****
   avgpower=  1.6782E-04  from=  1.0000E-06     to=  3.9000E-05

          ***** job concluded
1****** HSPICE -- D-2010.03-SP2 32-BIT (Aug 26 2010) winnt ******               
 ******  
 c:\for_hspice_code\project_file\hspice_on_vs_code\cic018.l

  ******  job statistics summary tnom=  25.000 temp=  25.000 *****

  ******  HSPICE Threads Information  ******

  Command Line Threads Count                  :     1
  Available CPU Count                         :     8
  Actual Model Evaluation(Load) Threads Count :     1
  Actual Solver Threads Count                 :     1


  ******  Circuit Statistics  ******
  # nodes       =      28 # elements   =      20
  # resistors   =       2 # capacitors =       3 # inductors   =       1
  # mutual_inds =       0 # vccs       =       0 # vcvs        =       0
  # cccs        =       0 # ccvs       =       0 # volt_srcs   =       5
  # curr_srcs   =       1 # diodes     =       0 # bjts        =       0
  # jfets       =       0 # mosfets    =       8 # U elements  =       0
  # T elements  =       0 # W elements =       0 # B elements  =       0
  # S elements  =       0 # P elements =       0 # va device   =       0


  ******  Runtime Statistics (seconds)  ******

  analysis           time    # points   tot. iter  conv.iter
  op point           0.01           1          16
  ac analysis        0.11        9001        9001
  readin             0.11
  errchk             0.02
  setup              0.02
  output             0.00


           total memory used          476  kbytes
           total cpu time            0.30 seconds
           total elapsed time        0.33 seconds
           job started at     22:10:54 12/18/2022
           job ended   at     22:10:58 12/18/2022


  lic: Release hspice token(s) 
