$DATA1 SOURCE='HSPICE' VERSION='D-2010.03-SP2 32-BIT'
.TITLE 'c:\for_hspice_code\project_file\hspice_on_vs_code\cic018.l'
 avgpower         temper           alter#            
  6.252e-03         25.0000        5                 
